.MODEL CMOSN NMOS (                     LEVEL   = 49
+VERSION = 3.1            TNOM    = 27             TOX     = 5.6E-9
+XJ      = 1E-7           NCH     = 2.3549E17      VTH0    = 0.3573315
+K1      = 0.3122238      K2      = 1.180139E-3    K3      = 1E-3
+K3B     = 1.0491248      W0      = 1E-7           NLX     = 5.591807E-7
+DVT0W   = 0              DVT1W   = 0              DVT2W   = 0
+DVT0    = 0.5497554      DVT1    = 0.1511731      DVT2    = 0.0531057
+U0      = 285.9312274    UA      = -1.531814E-9   UB      = 2.924174E-18
+UC      = 3.571893E-11   VSAT    = 1.319734E5     A0      = 2
+AGS     = 0.2381048      B0      = -9.243479E-7   B1      = 5E-6
+KETA    = -8.229668E-4   A1      = 3.115199E-4    A2      = 0.5974371
+RDSW    = 158.233913     PRWG    = 0.5            PRWB    = -0.2
+WR      = 1              WINT    = 0              LINT    = 3.353094E-9
+XL      = 3E-8           XW      = 0              DWG     = -1.363214E-8
+DWB     = 1.438405E-9    VOFF    = -0.08358       NFACTOR = 1.4002136
+CIT     = 0              CDSC    = 2.4E-4         CDSCD   = 0
+CDSCB   = 0              ETA0    = 0              ETAB    = 1.084963E-3
+DSUB    = 0              PCLM    = 2.6073691      PDIBLC1 = 0.9867506
+PDIBLC2 = 0.01           PDIBLCB = -0.1           DROUT   = 0.7508051
+PSCBE1  = 1E8            PSCBE2  = 5E-10          PVAG    = 1.4132312
+DELTA   = 0.01           RSH     = 4.5            MOBMOD  = 1
+PRT     = 0              UTE     = -1.5           KT1     = -0.11
+KT1L    = 0              KT2     = 0.022          UA1     = 4.31E-9
+UB1     = -7.61E-18      UC1     = -5.6E-11       AT      = 3.3E4
+WL      = 0              WLN     = 1              WW      = 0
+WWN     = 1              WWL     = 0              LL      = 0
+LLN     = 1              LW      = 0              LWN     = 1
+LWL     = 0              CAPMOD  = 2              XPART   = 0.5
+CGDO    = 5.79E-10       CGSO    = 5.79E-10       CGBO    = 1E-12
+CJ      = 1.583688E-3    PB      = 0.99           MJ      = 0.4241306
+CJSW    = 4.11455E-10    PBSW    = 0.99           MJSW    = 0.3197706
+CJSWG   = 3.29E-10       PBSWG   = 0.99           MJSWG   = 0.3197706
+CF      = 0              PVTH0   = -0.01          PRDSW   = -10
+PK2     = 1.28882E-3     WKETA   = 5.121299E-3    LKETA   = -1.062545E-3
+AF      = 0.8824         KF      = 3.454E-24   )

.MODEL CMOSP PMOS (                     LEVEL   = 49
+VERSION = 3.1            TNOM    = 27             TOX     = 5.6E-9
+XJ      = 1E-7           NCH     = 4.1589E17      VTH0    = -0.5386289
+K1      = 0.6216056      K2      = -2.509237E-3   K3      = 0
+K3B     = 10.4818789     W0      = 1E-6           NLX     = 1E-9
+DVT0W   = 0              DVT1W   = 0              DVT2W   = 0
+DVT0    = 2.8768147      DVT1    = 0.6328364      DVT2    = -0.1050368
+U0      = 108.7093041    UA      = 1.283363E-9    UB      = 1E-21
+UC      = -1E-10         VSAT    = 2E5            A0      = 0.8999403
+AGS     = 0.1680152      B0      = 1.274153E-6    B1      = 5E-6
+KETA    = 0.0143912      A1      = 0              A2      = 0.3
+RDSW    = 687.3287454    PRWG    = 0.4033333      PRWB    = -0.3845317
+WR      = 1              WINT    = 0              LINT    = 2.92244E-8
+XL      = 3E-8           XW      = -4E-8          DWG     = -3.89099E-8
+DWB     = -1.571561E-9   VOFF    = -0.1109908     NFACTOR = 1.0346461
+CIT     = 0              CDSC    = 2.4E-4         CDSCD   = 0
+CDSCB   = 0              ETA0    = 0.941234       ETAB    = -0.3464136
+DSUB    = 1.2429478      PCLM    = 1.3247459      PDIBLC1 = 5.679397E-3
+PDIBLC2 = -2.415857E-7   PDIBLCB = -1E-3          DROUT   = 0.0743758
+PSCBE1  = 6.161497E9     PSCBE2  = 5E-10          PVAG    = 1.45033E-6
+DELTA   = 0.01           RSH     = 3.3            MOBMOD  = 1
+PRT     = 0              UTE     = -1.5           KT1     = -0.11
+KT1L    = 0              KT2     = 0.022          UA1     = 4.31E-9
+UB1     = -7.61E-18      UC1     = -5.6E-11       AT      = 3.3E4
+WL      = 0              WLN     = 1              WW      = 0
+WWN     = 1              WWL     = 0              LL      = 0
+LLN     = 1              LW      = 0              LWN     = 1
+LWL     = 0              CAPMOD  = 2              XPART   = 0.5
+CGDO    = 6.83E-10       CGSO    = 6.83E-10       CGBO    = 1E-12
+CJ      = 1.899516E-3    PB      = 0.99           MJ      = 0.4659885
+CJSW    = 3.668858E-10   PBSW    = 0.6293348      MJSW    = 0.3028141
+CJSWG   = 2.5E-10        PBSWG   = 0.6293348      MJSWG   = 0.3028141
+CF      = 0              PVTH0   = 4.279305E-3    PRDSW   = 5.6047608
+PK2     = 3.098928E-3    WKETA   = 0.0260565      LKETA   = -9.360508E-3
+AF      = 1.2828         KF      = 1.184E-23)


