* +++++++++++++++++++++++++++++++++++++++++++++++++++++++++ *
* CDL Netlist:                                              *
*                                                           *
* Cell Name  : ph2p1_MAC                                    *
* Netlisted  : Sat Nov 23 21:11:52 2024                     *
* Pegasus Version: 22.21-s012 Fri Mar 10 17:36:33 PST 2023  *
* +++++++++++++++++++++++++++++++++++++++++++++++++++++++++ *
*.LDD
*.DEVTMPLT 0 MN(g45n1svt) _nmos1v ndiff_conn(D) poly_conn(G) ndiff_conn(S) psubstrate(B)
*.DEVTMPLT 1 MP(g45p1svt) _pmos1v pdiff_conn(D) poly_conn(G) pdiff_conn(S) nwell_conn(B)

* +++++++++++++++++++++++++++++++++++++++++++++++++++++++++ *
* Sub cell: INV_1X_new                                      *
* +++++++++++++++++++++++++++++++++++++++++++++++++++++++++ *
.subckt INV_1X_new vdd gnd 3 4
*.DEVICECLIMB
** N=4 EP=4 FDC=1
M0 4 3 gnd gnd g45n1svt L=4.5e-08 W=1.2e-07 AD=1.68e-14 AS=1.68e-14 PD=5.2e-07 PS=5.2e-07 fw=1.2e-07 sa=1.4e-07 sb=1.4e-07 sca=10.3086 scb=0.00950139 scc=0.000267597 $X=1140 $Y=930 $dt=0
.ends INV_1X_new

* +++++++++++++++++++++++++++++++++++++++++++++++++++++++++ *
* Sub cell: NAND2_1X_small                                  *
* +++++++++++++++++++++++++++++++++++++++++++++++++++++++++ *
.subckt NAND2_1X_small 1 vdd! gnd! 4 out
*.DEVICECLIMB
** N=6 EP=5 FDC=2
M0 6 1 gnd! gnd! g45n1svt L=4.5e-08 W=1.2e-07 AD=1.68e-14 AS=1.68e-14 PD=5.2e-07 PS=5.2e-07 fw=1.2e-07 sa=1.4e-07 sb=1.4e-07 sca=10.5213 scb=0.00984539 scc=0.000291491 $X=810 $Y=1000 $dt=0
M1 out 4 6 gnd! g45n1svt L=4.5e-08 W=1.2e-07 AD=1.68e-14 AS=1.68e-14 PD=5.2e-07 PS=5.2e-07 fw=1.2e-07 sa=1.4e-07 sb=1.4e-07 sca=10.5213 scb=0.00984539 scc=0.000291491 $X=2050 $Y=1000 $dt=0
.ends NAND2_1X_small

* +++++++++++++++++++++++++++++++++++++++++++++++++++++++++ *
* Sub cell: AND                                             *
* +++++++++++++++++++++++++++++++++++++++++++++++++++++++++ *
.subckt AND in_A vdd! gnd! in_B out 6
*.DEVICECLIMB
** N=7 EP=6 FDC=3
X0 vdd! gnd! 6 out INV_1X_new $T=2480 -10 0 0 $X=2410 $Y=0
X1 in_A vdd! gnd! in_B 6 NAND2_1X_small $T=-110 -70 0 0 $X=10 $Y=0
.ends AND

* +++++++++++++++++++++++++++++++++++++++++++++++++++++++++ *
* Sub cell: XOR_small                                       *
* +++++++++++++++++++++++++++++++++++++++++++++++++++++++++ *
.subckt XOR_small in_A vdd! gnd! in_B out 6 8
*.DEVICECLIMB
** N=10 EP=7 FDC=9
M0 8 in_A gnd! gnd! g45n1svt L=4.5e-08 W=2.4e-07 AD=3.36e-14 AS=3.36e-14 PD=7.6e-07 PS=7.6e-07 fw=2.4e-07 sa=1.4e-07 sb=1.4e-07 sca=7.45462 scb=0.00478425 scc=6.8709e-05 $X=700 $Y=590 $dt=0
M1 7 in_B gnd! gnd! g45n1svt L=4.5e-08 W=2.4e-07 AD=3.36e-14 AS=3.36e-14 PD=7.6e-07 PS=7.6e-07 fw=2.4e-07 sa=1.4e-07 sb=1.4e-07 sca=7.34996 scb=0.00460723 scc=6.29421e-05 $X=2110 $Y=580 $dt=0
M2 9 7 gnd! gnd! g45n1svt L=4.5e-08 W=2.4e-07 AD=3.36e-14 AS=3.36e-14 PD=7.6e-07 PS=7.6e-07 fw=2.4e-07 sa=1.4e-07 sb=1.4e-07 sca=7.34996 scb=0.00460723 scc=6.29421e-05 $X=3270 $Y=580 $dt=0
M3 out 8 9 gnd! g45n1svt L=4.5e-08 W=2.4e-07 AD=3.36e-14 AS=3.36e-14 PD=7.6e-07 PS=7.6e-07 fw=2.4e-07 sa=1.4e-07 sb=1.4e-07 sca=7.34996 scb=0.00460723 scc=6.29421e-05 $X=4610 $Y=580 $dt=0
M4 10 in_B gnd! gnd! g45n1svt L=4.5e-08 W=2.4e-07 AD=3.36e-14 AS=3.36e-14 PD=7.6e-07 PS=7.6e-07 fw=2.4e-07 sa=1.4e-07 sb=1.4e-07 sca=7.56294 scb=0.00496757 scc=7.49928e-05 $X=6140 $Y=600 $dt=0
M5 out in_A 10 gnd! g45n1svt L=4.5e-08 W=2.4e-07 AD=3.36e-14 AS=3.36e-14 PD=7.6e-07 PS=7.6e-07 fw=2.4e-07 sa=1.4e-07 sb=1.4e-07 sca=8.16621 scb=0.00598477 scc=0.000115874 $X=7250 $Y=650 $dt=0
M6 7 in_B vdd! vdd! g45p1svt L=4.5e-08 W=4.8e-07 AD=6.72e-14 AS=6.72e-14 PD=1.24e-06 PS=1.24e-06 fw=4.8e-07 sa=1.4e-07 sb=1.4e-07 sca=10.1869 scb=0.0086398 scc=0.00051649 $X=2110 $Y=2170 $dt=1
M7 6 7 vdd! vdd! g45p1svt L=4.5e-08 W=4.8e-07 AD=6.72e-14 AS=6.72e-14 PD=1.24e-06 PS=1.24e-06 fw=4.8e-07 sa=1.4e-07 sb=1.4e-07 sca=10.445 scb=0.0089239 scc=0.000559159 $X=3270 $Y=2160 $dt=1
M8 6 8 vdd! vdd! g45p1svt L=4.5e-08 W=4.8e-07 AD=6.72e-14 AS=6.72e-14 PD=1.24e-06 PS=1.24e-06 fw=4.8e-07 sa=1.4e-07 sb=1.4e-07 sca=10.445 scb=0.0089239 scc=0.000559159 $X=4610 $Y=2160 $dt=1
.ends XOR_small

* +++++++++++++++++++++++++++++++++++++++++++++++++++++++++ *
* Sub cell: half_adder                                      *
* +++++++++++++++++++++++++++++++++++++++++++++++++++++++++ *
.subckt half_adder inA gnd! vdd! inB S C 8 9 13
*.DEVICECLIMB
** N=13 EP=9 FDC=12
X6 inA vdd! gnd! inB C 9 AND $T=7790 0 0 0 $X=7800 $Y=0
X7 inA vdd! gnd! inB S 13 8 XOR_small $T=0 0 0 0 $X=0 $Y=0
.ends half_adder

* +++++++++++++++++++++++++++++++++++++++++++++++++++++++++ *
* Sub cell: NAND_1X_small                                   *
* +++++++++++++++++++++++++++++++++++++++++++++++++++++++++ *
.subckt NAND_1X_small vdd! gnd! 3 4 5
*.DEVICECLIMB
** N=6 EP=5 FDC=2
M0 6 3 gnd! gnd! g45n1svt L=4.5e-08 W=2.4e-07 AD=1.44e-14 AS=3.36e-14 PD=6e-07 PS=7.6e-07 fw=2.4e-07 sa=1.4e-07 sb=2.45e-07 sca=12.2783 scb=0.012115 scc=0.000626647 $X=1000 $Y=830 $dt=0
M1 4 5 6 gnd! g45n1svt L=4.5e-08 W=2.4e-07 AD=3.36e-14 AS=1.44e-14 PD=7.6e-07 PS=6e-07 fw=2.4e-07 sa=2.45e-07 sb=1.4e-07 sca=12.2783 scb=0.012115 scc=0.000626647 $X=1210 $Y=830 $dt=0
.ends NAND_1X_small

* +++++++++++++++++++++++++++++++++++++++++++++++++++++++++ *
* Sub cell: NAND_2X_small1                                  *
* +++++++++++++++++++++++++++++++++++++++++++++++++++++++++ *
.subckt NAND_2X_small1 vdd! gnd! out 4 5
*.DEVICECLIMB
** N=6 EP=5 FDC=2
M0 6 4 gnd! gnd! g45n1svt L=4.5e-08 W=4.8e-07 AD=2.88e-14 AS=6.72e-14 PD=1.08e-06 PS=1.24e-06 fw=4.8e-07 sa=1.4e-07 sb=2.45e-07 sca=7.66878 scb=0.00580736 scc=7.77234e-05 $X=940 $Y=890 $dt=0
M1 out 5 6 gnd! g45n1svt L=4.5e-08 W=4.8e-07 AD=6.72e-14 AS=2.88e-14 PD=1.24e-06 PS=1.08e-06 fw=4.8e-07 sa=2.45e-07 sb=1.4e-07 sca=11.676 scb=0.0124835 scc=0.000479408 $X=940 $Y=1100 $dt=0
.ends NAND_2X_small1

* +++++++++++++++++++++++++++++++++++++++++++++++++++++++++ *
* Sub cell: XOR1                                            *
* +++++++++++++++++++++++++++++++++++++++++++++++++++++++++ *
.subckt XOR1 vdd! gnd! 3 4 5 6 7 9
*.DEVICECLIMB
** N=10 EP=8 FDC=6
M0 6 3 gnd! gnd! g45n1svt L=4.5e-08 W=1.2e-07 AD=1.68e-14 AS=1.68e-14 PD=5.2e-07 PS=5.2e-07 fw=1.2e-07 sa=1.4e-07 sb=1.4e-07 sca=9.20059 scb=0.00764836 scc=0.000159521 $X=830 $Y=840 $dt=0
M1 7 4 gnd! gnd! g45n1svt L=4.5e-08 W=1.2e-07 AD=1.68e-14 AS=1.68e-14 PD=5.2e-07 PS=5.2e-07 fw=1.2e-07 sa=1.4e-07 sb=1.4e-07 sca=9.20059 scb=0.00764836 scc=0.000159521 $X=1790 $Y=840 $dt=0
M2 8 4 gnd! gnd! g45n1svt L=4.5e-08 W=2.4e-07 AD=3.36e-14 AS=3.36e-14 PD=7.6e-07 PS=7.6e-07 fw=2.4e-07 sa=1.4e-07 sb=1.4e-07 sca=10.8836 scb=0.0102333 scc=0.000414887 $X=3120 $Y=780 $dt=0
M3 5 6 10 gnd! g45n1svt L=4.5e-08 W=2.4e-07 AD=3.36e-14 AS=3.36e-14 PD=7.6e-07 PS=7.6e-07 fw=2.4e-07 sa=1.4e-07 sb=1.4e-07 sca=10.4126 scb=0.0095497 scc=0.000351079 $X=4090 $Y=760 $dt=0
M4 gnd! 7 10 gnd! g45n1svt L=4.5e-08 W=2.4e-07 AD=3.36e-14 AS=3.36e-14 PD=7.6e-07 PS=7.6e-07 fw=2.4e-07 sa=1.4e-07 sb=1.4e-07 sca=10.6427 scb=0.00988663 scc=0.000381704 $X=5050 $Y=770 $dt=0
M5 5 3 8 gnd! g45n1svt L=4.5e-08 W=2.4e-07 AD=3.36e-14 AS=3.36e-14 PD=7.6e-07 PS=7.6e-07 fw=2.4e-07 sa=1.4e-07 sb=1.4e-07 sca=10.6427 scb=0.00988663 scc=0.000381704 $X=6010 $Y=770 $dt=0
.ends XOR1

* +++++++++++++++++++++++++++++++++++++++++++++++++++++++++ *
* Sub cell: full_adder1_small                               *
* +++++++++++++++++++++++++++++++++++++++++++++++++++++++++ *
.subckt full_adder1_small inA vdd! inB gnd! Cin_ S Cout 8 9 10
+ 11 12 13 14 22 23
*.DEVICECLIMB
** N=23 EP=16 FDC=18
X26 vdd! gnd! inA 10 inB NAND_1X_small $T=16970 30 0 0 $X=16540 $Y=10
X27 vdd! gnd! 9 Cout 10 NAND_1X_small $T=19810 30 0 0 $X=19380 $Y=10
X28 vdd! gnd! 9 Cin_ 8 NAND_2X_small1 $T=13690 -10 0 0 $X=13700 $Y=10
X29 vdd! gnd! inA inB 8 11 12 22 XOR1 $T=-40 30 0 0 $X=20 $Y=10
X30 vdd! gnd! Cin_ 8 S 13 14 23 XOR1 $T=6800 30 0 0 $X=6860 $Y=10
.ends full_adder1_small

* +++++++++++++++++++++++++++++++++++++++++++++++++++++++++ *
* Sub cell: multiplier                                      *
* +++++++++++++++++++++++++++++++++++++++++++++++++++++++++ *
.subckt multiplier a3 gnd! b0 b2 b3 vdd! a2 a1 b1 z6
+ a0 z7 z3 z0 z5 z4 z2 z1
** N=238 EP=18 FDC=456
X273 a3 vdd! gnd! b3 19 77 AND $T=40 14460 1 0 $X=50 $Y=10660
X274 a3 vdd! gnd! b2 29 76 AND $T=40 14420 0 0 $X=50 $Y=14420
X275 a3 vdd! gnd! b0 45 75 AND $T=40 21740 0 0 $X=50 $Y=21740
X276 a2 vdd! gnd! b3 20 80 AND $T=4440 14460 1 0 $X=4450 $Y=10660
X277 a2 vdd! gnd! b2 47 79 AND $T=4440 14420 0 0 $X=4450 $Y=14420
X278 a3 vdd! gnd! b1 46 78 AND $T=4440 21740 0 0 $X=4450 $Y=21740
X279 a1 vdd! gnd! b3 36 83 AND $T=8840 14460 1 0 $X=8850 $Y=10660
X280 a1 vdd! gnd! b2 48 82 AND $T=8840 14420 0 0 $X=8850 $Y=14420
X281 b0 vdd! gnd! a2 32 81 AND $T=8840 21740 0 0 $X=8850 $Y=21740
X282 a0 vdd! gnd! b3 50 93 AND $T=13240 14460 1 0 $X=13250 $Y=10660
X283 a0 vdd! gnd! b2 22 92 AND $T=13240 14420 0 0 $X=13250 $Y=14420
X284 b1 vdd! gnd! a2 49 91 AND $T=13240 21740 0 0 $X=13250 $Y=21740
X285 b0 vdd! gnd! a1 43 104 AND $T=17880 21740 0 0 $X=17890 $Y=21740
X286 b1 vdd! gnd! a1 38 126 AND $T=22280 21740 0 0 $X=22290 $Y=21740
X287 b0 vdd! gnd! a0 z0 127 AND $T=26680 21740 0 0 $X=26690 $Y=21740
X288 b1 vdd! gnd! a0 33 131 AND $T=31080 21740 0 0 $X=31090 $Y=21740
X289 46 gnd! vdd! 35 30 31 73 74 225 half_adder $T=50 21780 1 0 $X=50 $Y=17980
X290 50 gnd! vdd! 26 z3 24 102 103 228 half_adder $T=17640 14460 1 0 $X=17640 $Y=10660
X291 22 gnd! vdd! 25 z2 27 129 130 237 half_adder $T=29830 14460 1 0 $X=29830 $Y=10660
X292 43 gnd! vdd! 33 z1 40 133 134 238 half_adder $T=34210 21780 1 0 $X=34210 $Y=17980
X293 30 vdd! 47 gnd! 41 34 44 67 70 71
+ 65 66 68 69 223 224 full_adder1_small $T=22270 7090 1 180 $X=20 $Y=7100
X294 19 vdd! 23 gnd! 42 z6 z7 60 63 64
+ 58 59 61 62 221 222 full_adder1_small $T=30 -230 0 0 $X=50 $Y=-220
X295 29 vdd! 31 gnd! 44 21 23 53 56 57
+ 51 52 54 55 219 220 full_adder1_small $T=30 7150 1 0 $X=50 $Y=3340
X296 45 vdd! 49 gnd! 39 37 35 86 89 90
+ 84 85 87 88 226 227 full_adder1_small $T=12230 21790 1 0 $X=12250 $Y=17980
X297 38 vdd! 32 gnd! 40 25 39 96 99 100
+ 94 95 97 98 229 230 full_adder1_small $T=17850 14410 0 0 $X=17870 $Y=14420
X298 20 vdd! 21 gnd! 28 z5 42 121 124 125
+ 119 120 122 123 235 236 full_adder1_small $T=21990 -230 0 0 $X=22010 $Y=-220
X299 36 vdd! 34 gnd! 24 z4 28 114 117 118
+ 112 113 115 116 233 234 full_adder1_small $T=21990 7150 1 0 $X=22010 $Y=3340
X300 48 vdd! 37 gnd! 27 26 41 107 110 111
+ 105 106 108 109 231 232 full_adder1_small $T=21990 7090 0 0 $X=22010 $Y=7100
M0 77 a3 vdd! vdd! g45p1svt L=4.5e-08 W=2.4e-07 AD=3.36e-14 AS=3.36e-14 PD=7.6e-07 PS=7.6e-07 fw=2.4e-07 sa=1.4e-07 sb=1.4e-07 sca=15.5317 scb=0.0167655 scc=0.000436143 $X=740 $Y=11610 $dt=1
M1 76 a3 vdd! vdd! g45p1svt L=4.5e-08 W=2.4e-07 AD=3.36e-14 AS=3.36e-14 PD=7.6e-07 PS=7.6e-07 fw=2.4e-07 sa=1.4e-07 sb=1.4e-07 sca=15.5317 scb=0.0167655 scc=0.000436143 $X=740 $Y=16790 $dt=1
M2 75 a3 vdd! vdd! g45p1svt L=4.5e-08 W=2.4e-07 AD=3.36e-14 AS=3.36e-14 PD=7.6e-07 PS=7.6e-07 fw=2.4e-07 sa=1.4e-07 sb=1.4e-07 sca=17.6697 scb=0.0185533 scc=0.000444231 $X=740 $Y=24110 $dt=1
M3 73 46 vdd! vdd! g45p1svt L=4.5e-08 W=4.8e-07 AD=6.72e-14 AS=6.72e-14 PD=1.24e-06 PS=1.24e-06 fw=4.8e-07 sa=1.4e-07 sb=1.4e-07 sca=16.2188 scb=0.0173423 scc=0.000698846 $X=750 $Y=18640 $dt=1
M4 58 19 vdd! vdd! g45p1svt L=4.5e-08 W=2.4e-07 AD=3.36e-14 AS=3.36e-14 PD=7.6e-07 PS=7.6e-07 fw=2.4e-07 sa=1.4e-07 sb=1.4e-07 sca=14.672 scb=0.0152131 scc=0.000371293 $X=820 $Y=2120 $dt=1
M5 51 29 vdd! vdd! g45p1svt L=4.5e-08 W=2.4e-07 AD=3.36e-14 AS=3.36e-14 PD=7.6e-07 PS=7.6e-07 fw=2.4e-07 sa=1.4e-07 sb=1.4e-07 sca=14.672 scb=0.0152131 scc=0.000371293 $X=820 $Y=4320 $dt=1
M6 44 71 vdd! vdd! g45p1svt L=4.5e-08 W=2.4e-07 AD=3.84e-14 AS=3.36e-14 PD=8e-07 PS=7.6e-07 fw=2.4e-07 sa=1.4e-07 sb=3.45e-07 sca=11.9797 scb=0.0105745 scc=0.000243193 $X=1070 $Y=9450 $dt=1
M7 vdd! 70 44 vdd! g45p1svt L=4.5e-08 W=2.4e-07 AD=3.36e-14 AS=3.84e-14 PD=7.6e-07 PS=8e-07 fw=2.4e-07 sa=3.45e-07 sb=1.4e-07 sca=10.287 scb=0.00843354 scc=0.000230522 $X=1480 $Y=9450 $dt=1
M8 59 23 vdd! vdd! g45p1svt L=4.5e-08 W=2.4e-07 AD=3.36e-14 AS=3.36e-14 PD=7.6e-07 PS=7.6e-07 fw=2.4e-07 sa=1.4e-07 sb=1.4e-07 sca=9.90193 scb=0.0083839 scc=0.000250634 $X=1780 $Y=2120 $dt=1
M9 52 31 vdd! vdd! g45p1svt L=4.5e-08 W=2.4e-07 AD=3.36e-14 AS=3.36e-14 PD=7.6e-07 PS=7.6e-07 fw=2.4e-07 sa=1.4e-07 sb=1.4e-07 sca=9.90193 scb=0.0083839 scc=0.000250634 $X=1780 $Y=4320 $dt=1
M10 77 b3 vdd! vdd! g45p1svt L=4.5e-08 W=2.4e-07 AD=3.36e-14 AS=3.36e-14 PD=7.6e-07 PS=7.6e-07 fw=2.4e-07 sa=1.4e-07 sb=1.4e-07 sca=8.96224 scb=0.0072004 scc=0.000178239 $X=1980 $Y=11600 $dt=1
M11 76 b2 vdd! vdd! g45p1svt L=4.5e-08 W=2.4e-07 AD=3.36e-14 AS=3.36e-14 PD=7.6e-07 PS=7.6e-07 fw=2.4e-07 sa=1.4e-07 sb=1.4e-07 sca=8.96224 scb=0.0072004 scc=0.000178239 $X=1980 $Y=16800 $dt=1
M12 75 b0 vdd! vdd! g45p1svt L=4.5e-08 W=2.4e-07 AD=3.36e-14 AS=3.36e-14 PD=7.6e-07 PS=7.6e-07 fw=2.4e-07 sa=1.4e-07 sb=1.4e-07 sca=11.1525 scb=0.00906354 scc=0.000187093 $X=1980 $Y=24120 $dt=1
M13 221 23 vdd! vdd! g45p1svt L=4.5e-08 W=4.8e-07 AD=6.72e-14 AS=6.72e-14 PD=1.24e-06 PS=1.24e-06 fw=4.8e-07 sa=1.4e-07 sb=1.4e-07 sca=12.3552 scb=0.0107648 scc=0.000891478 $X=3110 $Y=1880 $dt=1
M14 219 31 vdd! vdd! g45p1svt L=4.5e-08 W=4.8e-07 AD=6.72e-14 AS=6.72e-14 PD=1.24e-06 PS=1.24e-06 fw=4.8e-07 sa=1.4e-07 sb=1.4e-07 sca=12.3552 scb=0.0107648 scc=0.000891478 $X=3110 $Y=4080 $dt=1
M15 19 77 vdd! vdd! g45p1svt L=4.5e-08 W=2.4e-07 AD=3.36e-14 AS=3.36e-14 PD=7.6e-07 PS=7.6e-07 fw=2.4e-07 sa=1.4e-07 sb=1.4e-07 sca=8.58543 scb=0.00668222 scc=0.000150123 $X=3660 $Y=11580 $dt=1
M16 29 76 vdd! vdd! g45p1svt L=4.5e-08 W=2.4e-07 AD=3.36e-14 AS=3.36e-14 PD=7.6e-07 PS=7.6e-07 fw=2.4e-07 sa=1.4e-07 sb=1.4e-07 sca=8.58543 scb=0.00668222 scc=0.000150123 $X=3660 $Y=16820 $dt=1
M17 45 75 vdd! vdd! g45p1svt L=4.5e-08 W=2.4e-07 AD=3.36e-14 AS=3.36e-14 PD=7.6e-07 PS=7.6e-07 fw=2.4e-07 sa=1.4e-07 sb=1.4e-07 sca=10.8846 scb=0.00870518 scc=0.000160728 $X=3660 $Y=24140 $dt=1
M18 71 47 vdd! vdd! g45p1svt L=4.5e-08 W=2.4e-07 AD=3.84e-14 AS=3.36e-14 PD=8e-07 PS=7.6e-07 fw=2.4e-07 sa=1.4e-07 sb=3.45e-07 sca=9.4037 scb=0.0080058 scc=0.000230225 $X=3910 $Y=9450 $dt=1
M19 60 58 221 vdd! g45p1svt L=4.5e-08 W=4.8e-07 AD=6.72e-14 AS=6.72e-14 PD=1.24e-06 PS=1.24e-06 fw=4.8e-07 sa=1.4e-07 sb=1.4e-07 sca=10.445 scb=0.0089239 scc=0.000559159 $X=4080 $Y=1940 $dt=1
M20 53 51 219 vdd! g45p1svt L=4.5e-08 W=4.8e-07 AD=6.72e-14 AS=6.72e-14 PD=1.24e-06 PS=1.24e-06 fw=4.8e-07 sa=1.4e-07 sb=1.4e-07 sca=10.445 scb=0.0089239 scc=0.000559159 $X=4080 $Y=4020 $dt=1
M21 vdd! 30 71 vdd! g45p1svt L=4.5e-08 W=2.4e-07 AD=3.36e-14 AS=3.84e-14 PD=7.6e-07 PS=8e-07 fw=2.4e-07 sa=3.45e-07 sb=1.4e-07 sca=9.4037 scb=0.0080058 scc=0.000230225 $X=4320 $Y=9450 $dt=1
M22 60 59 221 vdd! g45p1svt L=4.5e-08 W=4.8e-07 AD=6.72e-14 AS=6.72e-14 PD=1.24e-06 PS=1.24e-06 fw=4.8e-07 sa=1.4e-07 sb=1.4e-07 sca=10.445 scb=0.0089239 scc=0.000559159 $X=5040 $Y=1940 $dt=1
M23 53 52 219 vdd! g45p1svt L=4.5e-08 W=4.8e-07 AD=6.72e-14 AS=6.72e-14 PD=1.24e-06 PS=1.24e-06 fw=4.8e-07 sa=1.4e-07 sb=1.4e-07 sca=10.445 scb=0.0089239 scc=0.000559159 $X=5040 $Y=4020 $dt=1
M24 80 a2 vdd! vdd! g45p1svt L=4.5e-08 W=2.4e-07 AD=3.36e-14 AS=3.36e-14 PD=7.6e-07 PS=7.6e-07 fw=2.4e-07 sa=1.4e-07 sb=1.4e-07 sca=9.05646 scb=0.00745111 scc=0.000194153 $X=5140 $Y=11610 $dt=1
M25 79 a2 vdd! vdd! g45p1svt L=4.5e-08 W=2.4e-07 AD=3.36e-14 AS=3.36e-14 PD=7.6e-07 PS=7.6e-07 fw=2.4e-07 sa=1.4e-07 sb=1.4e-07 sca=9.05646 scb=0.00745111 scc=0.000194153 $X=5140 $Y=16790 $dt=1
M26 78 a3 vdd! vdd! g45p1svt L=4.5e-08 W=2.4e-07 AD=3.36e-14 AS=3.36e-14 PD=7.6e-07 PS=7.6e-07 fw=2.4e-07 sa=1.4e-07 sb=1.4e-07 sca=11.1944 scb=0.00923888 scc=0.000202241 $X=5140 $Y=24110 $dt=1
M27 221 19 vdd! vdd! g45p1svt L=4.5e-08 W=4.8e-07 AD=6.72e-14 AS=6.72e-14 PD=1.24e-06 PS=1.24e-06 fw=4.8e-07 sa=1.4e-07 sb=1.4e-07 sca=10.445 scb=0.0089239 scc=0.000559159 $X=6000 $Y=1940 $dt=1
M28 219 29 vdd! vdd! g45p1svt L=4.5e-08 W=4.8e-07 AD=6.72e-14 AS=6.72e-14 PD=1.24e-06 PS=1.24e-06 fw=4.8e-07 sa=1.4e-07 sb=1.4e-07 sca=10.445 scb=0.0089239 scc=0.000559159 $X=6000 $Y=4020 $dt=1
M29 30 35 225 vdd! g45p1svt L=4.5e-08 W=4.8e-07 AD=6.72e-14 AS=6.72e-14 PD=1.24e-06 PS=1.24e-06 fw=4.8e-07 sa=1.4e-07 sb=1.4e-07 sca=11.6393 scb=0.010126 scc=0.000764642 $X=6190 $Y=18700 $dt=1
M30 80 b3 vdd! vdd! g45p1svt L=4.5e-08 W=2.4e-07 AD=3.36e-14 AS=3.36e-14 PD=7.6e-07 PS=7.6e-07 fw=2.4e-07 sa=1.4e-07 sb=1.4e-07 sca=8.89317 scb=0.00718657 scc=0.000178238 $X=6380 $Y=11600 $dt=1
M31 79 b2 vdd! vdd! g45p1svt L=4.5e-08 W=2.4e-07 AD=3.36e-14 AS=3.36e-14 PD=7.6e-07 PS=7.6e-07 fw=2.4e-07 sa=1.4e-07 sb=1.4e-07 sca=8.89317 scb=0.00718657 scc=0.000178238 $X=6380 $Y=16800 $dt=1
M32 78 b1 vdd! vdd! g45p1svt L=4.5e-08 W=2.4e-07 AD=3.36e-14 AS=3.36e-14 PD=7.6e-07 PS=7.6e-07 fw=2.4e-07 sa=1.4e-07 sb=1.4e-07 sca=11.0834 scb=0.00904972 scc=0.000187092 $X=6380 $Y=24120 $dt=1
M33 70 67 vdd! vdd! g45p1svt L=4.5e-08 W=4.8e-07 AD=7.68e-14 AS=6.72e-14 PD=1.28e-06 PS=1.24e-06 fw=4.8e-07 sa=1.4e-07 sb=3.45e-07 sca=11.3137 scb=0.00981578 scc=0.000707604 $X=6890 $Y=9230 $dt=1
M34 vdd! 41 70 vdd! g45p1svt L=4.5e-08 W=4.8e-07 AD=6.72e-14 AS=7.68e-14 PD=1.24e-06 PS=1.28e-06 fw=4.8e-07 sa=3.45e-07 sb=1.4e-07 sca=11.3137 scb=0.00981578 scc=0.000707604 $X=7300 $Y=9230 $dt=1
M35 30 46 225 vdd! g45p1svt L=4.5e-08 W=4.8e-07 AD=6.72e-14 AS=6.72e-14 PD=1.24e-06 PS=1.24e-06 fw=4.8e-07 sa=1.4e-07 sb=1.4e-07 sca=10.445 scb=0.0089239 scc=0.000559159 $X=7300 $Y=18660 $dt=1
M36 61 42 vdd! vdd! g45p1svt L=4.5e-08 W=2.4e-07 AD=3.36e-14 AS=3.36e-14 PD=7.6e-07 PS=7.6e-07 fw=2.4e-07 sa=1.4e-07 sb=1.4e-07 sca=9.58846 scb=0.0082963 scc=0.000250617 $X=7660 $Y=2120 $dt=1
M37 54 44 vdd! vdd! g45p1svt L=4.5e-08 W=2.4e-07 AD=3.36e-14 AS=3.36e-14 PD=7.6e-07 PS=7.6e-07 fw=2.4e-07 sa=1.4e-07 sb=1.4e-07 sca=9.58846 scb=0.0082963 scc=0.000250617 $X=7660 $Y=4320 $dt=1
M38 20 80 vdd! vdd! g45p1svt L=4.5e-08 W=2.4e-07 AD=3.36e-14 AS=3.36e-14 PD=7.6e-07 PS=7.6e-07 fw=2.4e-07 sa=1.4e-07 sb=1.4e-07 sca=8.58543 scb=0.00668222 scc=0.000150123 $X=8060 $Y=11580 $dt=1
M39 47 79 vdd! vdd! g45p1svt L=4.5e-08 W=2.4e-07 AD=3.36e-14 AS=3.36e-14 PD=7.6e-07 PS=7.6e-07 fw=2.4e-07 sa=1.4e-07 sb=1.4e-07 sca=8.58543 scb=0.00668222 scc=0.000150123 $X=8060 $Y=16820 $dt=1
M40 46 78 vdd! vdd! g45p1svt L=4.5e-08 W=2.4e-07 AD=3.36e-14 AS=3.36e-14 PD=7.6e-07 PS=7.6e-07 fw=2.4e-07 sa=1.4e-07 sb=1.4e-07 sca=10.8846 scb=0.00870518 scc=0.000160728 $X=8060 $Y=24140 $dt=1
M41 74 46 vdd! vdd! g45p1svt L=4.5e-08 W=2.4e-07 AD=3.36e-14 AS=3.36e-14 PD=7.6e-07 PS=7.6e-07 fw=2.4e-07 sa=1.4e-07 sb=1.4e-07 sca=9.05646 scb=0.00745111 scc=0.000194153 $X=8540 $Y=18930 $dt=1
M42 62 60 vdd! vdd! g45p1svt L=4.5e-08 W=2.4e-07 AD=3.36e-14 AS=3.36e-14 PD=7.6e-07 PS=7.6e-07 fw=2.4e-07 sa=1.4e-07 sb=1.4e-07 sca=9.58846 scb=0.0082963 scc=0.000250617 $X=8620 $Y=2120 $dt=1
M43 55 53 vdd! vdd! g45p1svt L=4.5e-08 W=2.4e-07 AD=3.36e-14 AS=3.36e-14 PD=7.6e-07 PS=7.6e-07 fw=2.4e-07 sa=1.4e-07 sb=1.4e-07 sca=9.58846 scb=0.0082963 scc=0.000250617 $X=8620 $Y=4320 $dt=1
M44 vdd! 41 224 vdd! g45p1svt L=4.5e-08 W=4.8e-07 AD=6.72e-14 AS=6.72e-14 PD=1.24e-06 PS=1.24e-06 fw=4.8e-07 sa=1.4e-07 sb=1.4e-07 sca=10.445 scb=0.0089239 scc=0.000559159 $X=9370 $Y=9260 $dt=1
M45 83 a1 vdd! vdd! g45p1svt L=4.5e-08 W=2.4e-07 AD=3.36e-14 AS=3.36e-14 PD=7.6e-07 PS=7.6e-07 fw=2.4e-07 sa=1.4e-07 sb=1.4e-07 sca=9.05646 scb=0.00745111 scc=0.000194153 $X=9540 $Y=11610 $dt=1
M46 82 a1 vdd! vdd! g45p1svt L=4.5e-08 W=2.4e-07 AD=3.36e-14 AS=3.36e-14 PD=7.6e-07 PS=7.6e-07 fw=2.4e-07 sa=1.4e-07 sb=1.4e-07 sca=9.05646 scb=0.00745111 scc=0.000194153 $X=9540 $Y=16790 $dt=1
M47 81 b0 vdd! vdd! g45p1svt L=4.5e-08 W=2.4e-07 AD=3.36e-14 AS=3.36e-14 PD=7.6e-07 PS=7.6e-07 fw=2.4e-07 sa=1.4e-07 sb=1.4e-07 sca=11.1944 scb=0.00923888 scc=0.000202241 $X=9540 $Y=24110 $dt=1
M48 74 35 vdd! vdd! g45p1svt L=4.5e-08 W=2.4e-07 AD=3.36e-14 AS=3.36e-14 PD=7.6e-07 PS=7.6e-07 fw=2.4e-07 sa=1.4e-07 sb=1.4e-07 sca=8.89317 scb=0.00718657 scc=0.000178238 $X=9780 $Y=18920 $dt=1
M49 222 60 vdd! vdd! g45p1svt L=4.5e-08 W=4.8e-07 AD=6.72e-14 AS=6.72e-14 PD=1.24e-06 PS=1.24e-06 fw=4.8e-07 sa=1.4e-07 sb=1.4e-07 sca=12.3552 scb=0.0107648 scc=0.000891478 $X=9950 $Y=1880 $dt=1
M50 220 53 vdd! vdd! g45p1svt L=4.5e-08 W=4.8e-07 AD=6.72e-14 AS=6.72e-14 PD=1.24e-06 PS=1.24e-06 fw=4.8e-07 sa=1.4e-07 sb=1.4e-07 sca=12.3552 scb=0.0107648 scc=0.000891478 $X=9950 $Y=4080 $dt=1
M51 224 69 34 vdd! g45p1svt L=4.5e-08 W=4.8e-07 AD=6.72e-14 AS=6.72e-14 PD=1.24e-06 PS=1.24e-06 fw=4.8e-07 sa=1.4e-07 sb=1.4e-07 sca=10.445 scb=0.0089239 scc=0.000559159 $X=10330 $Y=9260 $dt=1
M52 83 b3 vdd! vdd! g45p1svt L=4.5e-08 W=2.4e-07 AD=3.36e-14 AS=3.36e-14 PD=7.6e-07 PS=7.6e-07 fw=2.4e-07 sa=1.4e-07 sb=1.4e-07 sca=8.89317 scb=0.00718657 scc=0.000178238 $X=10780 $Y=11600 $dt=1
M53 82 b2 vdd! vdd! g45p1svt L=4.5e-08 W=2.4e-07 AD=3.36e-14 AS=3.36e-14 PD=7.6e-07 PS=7.6e-07 fw=2.4e-07 sa=1.4e-07 sb=1.4e-07 sca=8.89317 scb=0.00718657 scc=0.000178238 $X=10780 $Y=16800 $dt=1
M54 81 a2 vdd! vdd! g45p1svt L=4.5e-08 W=2.4e-07 AD=3.36e-14 AS=3.36e-14 PD=7.6e-07 PS=7.6e-07 fw=2.4e-07 sa=1.4e-07 sb=1.4e-07 sca=11.0834 scb=0.00904972 scc=0.000187092 $X=10780 $Y=24120 $dt=1
M55 z6 61 222 vdd! g45p1svt L=4.5e-08 W=4.8e-07 AD=6.72e-14 AS=6.72e-14 PD=1.24e-06 PS=1.24e-06 fw=4.8e-07 sa=1.4e-07 sb=1.4e-07 sca=10.445 scb=0.0089239 scc=0.000559159 $X=10920 $Y=1940 $dt=1
M56 21 54 220 vdd! g45p1svt L=4.5e-08 W=4.8e-07 AD=6.72e-14 AS=6.72e-14 PD=1.24e-06 PS=1.24e-06 fw=4.8e-07 sa=1.4e-07 sb=1.4e-07 sca=10.445 scb=0.0089239 scc=0.000559159 $X=10920 $Y=4020 $dt=1
M57 224 68 34 vdd! g45p1svt L=4.5e-08 W=4.8e-07 AD=6.72e-14 AS=6.72e-14 PD=1.24e-06 PS=1.24e-06 fw=4.8e-07 sa=1.4e-07 sb=1.4e-07 sca=10.445 scb=0.0089239 scc=0.000559159 $X=11290 $Y=9260 $dt=1
M58 31 74 vdd! vdd! g45p1svt L=4.5e-08 W=2.4e-07 AD=3.36e-14 AS=3.36e-14 PD=7.6e-07 PS=7.6e-07 fw=2.4e-07 sa=1.4e-07 sb=1.4e-07 sca=8.58543 scb=0.00668222 scc=0.000150123 $X=11460 $Y=18900 $dt=1
M59 z6 62 222 vdd! g45p1svt L=4.5e-08 W=4.8e-07 AD=6.72e-14 AS=6.72e-14 PD=1.24e-06 PS=1.24e-06 fw=4.8e-07 sa=1.4e-07 sb=1.4e-07 sca=10.445 scb=0.0089239 scc=0.000559159 $X=11880 $Y=1940 $dt=1
M60 21 55 220 vdd! g45p1svt L=4.5e-08 W=4.8e-07 AD=6.72e-14 AS=6.72e-14 PD=1.24e-06 PS=1.24e-06 fw=4.8e-07 sa=1.4e-07 sb=1.4e-07 sca=10.445 scb=0.0089239 scc=0.000559159 $X=11880 $Y=4020 $dt=1
M61 vdd! 67 224 vdd! g45p1svt L=4.5e-08 W=4.8e-07 AD=6.72e-14 AS=6.72e-14 PD=1.24e-06 PS=1.24e-06 fw=4.8e-07 sa=1.4e-07 sb=1.4e-07 sca=12.3552 scb=0.0107648 scc=0.000891478 $X=12260 $Y=9200 $dt=1
M62 36 83 vdd! vdd! g45p1svt L=4.5e-08 W=2.4e-07 AD=3.36e-14 AS=3.36e-14 PD=7.6e-07 PS=7.6e-07 fw=2.4e-07 sa=1.4e-07 sb=1.4e-07 sca=8.58543 scb=0.00668222 scc=0.000150123 $X=12460 $Y=11580 $dt=1
M63 48 82 vdd! vdd! g45p1svt L=4.5e-08 W=2.4e-07 AD=3.36e-14 AS=3.36e-14 PD=7.6e-07 PS=7.6e-07 fw=2.4e-07 sa=1.4e-07 sb=1.4e-07 sca=8.58543 scb=0.00668222 scc=0.000150123 $X=12460 $Y=16820 $dt=1
M64 32 81 vdd! vdd! g45p1svt L=4.5e-08 W=2.4e-07 AD=3.36e-14 AS=3.36e-14 PD=7.6e-07 PS=7.6e-07 fw=2.4e-07 sa=1.4e-07 sb=1.4e-07 sca=10.8846 scb=0.00870518 scc=0.000160728 $X=12460 $Y=24140 $dt=1
M65 222 42 vdd! vdd! g45p1svt L=4.5e-08 W=4.8e-07 AD=6.72e-14 AS=6.72e-14 PD=1.24e-06 PS=1.24e-06 fw=4.8e-07 sa=1.4e-07 sb=1.4e-07 sca=10.445 scb=0.0089239 scc=0.000559159 $X=12840 $Y=1940 $dt=1
M66 220 44 vdd! vdd! g45p1svt L=4.5e-08 W=4.8e-07 AD=6.72e-14 AS=6.72e-14 PD=1.24e-06 PS=1.24e-06 fw=4.8e-07 sa=1.4e-07 sb=1.4e-07 sca=10.445 scb=0.0089239 scc=0.000559159 $X=12840 $Y=4020 $dt=1
M67 84 45 vdd! vdd! g45p1svt L=4.5e-08 W=2.4e-07 AD=3.36e-14 AS=3.36e-14 PD=7.6e-07 PS=7.6e-07 fw=2.4e-07 sa=1.4e-07 sb=1.4e-07 sca=9.58846 scb=0.0082963 scc=0.000250617 $X=13020 $Y=18960 $dt=1
M68 vdd! 67 69 vdd! g45p1svt L=4.5e-08 W=2.4e-07 AD=3.36e-14 AS=3.36e-14 PD=7.6e-07 PS=7.6e-07 fw=2.4e-07 sa=1.4e-07 sb=1.4e-07 sca=9.58846 scb=0.0082963 scc=0.000250617 $X=13590 $Y=9440 $dt=1
M69 93 a0 vdd! vdd! g45p1svt L=4.5e-08 W=2.4e-07 AD=3.36e-14 AS=3.36e-14 PD=7.6e-07 PS=7.6e-07 fw=2.4e-07 sa=1.4e-07 sb=1.4e-07 sca=9.05646 scb=0.00745111 scc=0.000194153 $X=13940 $Y=11610 $dt=1
M70 92 a0 vdd! vdd! g45p1svt L=4.5e-08 W=2.4e-07 AD=3.36e-14 AS=3.36e-14 PD=7.6e-07 PS=7.6e-07 fw=2.4e-07 sa=1.4e-07 sb=1.4e-07 sca=9.05646 scb=0.00745111 scc=0.000194153 $X=13940 $Y=16790 $dt=1
M71 91 b1 vdd! vdd! g45p1svt L=4.5e-08 W=2.4e-07 AD=3.36e-14 AS=3.36e-14 PD=7.6e-07 PS=7.6e-07 fw=2.4e-07 sa=1.4e-07 sb=1.4e-07 sca=11.1944 scb=0.00923888 scc=0.000202241 $X=13940 $Y=24110 $dt=1
M72 85 49 vdd! vdd! g45p1svt L=4.5e-08 W=2.4e-07 AD=3.36e-14 AS=3.36e-14 PD=7.6e-07 PS=7.6e-07 fw=2.4e-07 sa=1.4e-07 sb=1.4e-07 sca=9.58846 scb=0.0082963 scc=0.000250617 $X=13980 $Y=18960 $dt=1
M73 vdd! 41 68 vdd! g45p1svt L=4.5e-08 W=2.4e-07 AD=3.36e-14 AS=3.36e-14 PD=7.6e-07 PS=7.6e-07 fw=2.4e-07 sa=1.4e-07 sb=1.4e-07 sca=9.58846 scb=0.0082963 scc=0.000250617 $X=14550 $Y=9440 $dt=1
M74 63 42 vdd! vdd! g45p1svt L=4.5e-08 W=4.8e-07 AD=7.68e-14 AS=6.72e-14 PD=1.28e-06 PS=1.24e-06 fw=4.8e-07 sa=1.4e-07 sb=3.45e-07 sca=11.3137 scb=0.00981578 scc=0.000707604 $X=14910 $Y=1910 $dt=1
M75 56 44 vdd! vdd! g45p1svt L=4.5e-08 W=4.8e-07 AD=7.68e-14 AS=6.72e-14 PD=1.28e-06 PS=1.24e-06 fw=4.8e-07 sa=1.4e-07 sb=3.45e-07 sca=11.3137 scb=0.00981578 scc=0.000707604 $X=14910 $Y=4050 $dt=1
M76 93 b3 vdd! vdd! g45p1svt L=4.5e-08 W=2.4e-07 AD=3.36e-14 AS=3.36e-14 PD=7.6e-07 PS=7.6e-07 fw=2.4e-07 sa=1.4e-07 sb=1.4e-07 sca=8.89317 scb=0.00718657 scc=0.000178238 $X=15180 $Y=11600 $dt=1
M77 92 b2 vdd! vdd! g45p1svt L=4.5e-08 W=2.4e-07 AD=3.36e-14 AS=3.36e-14 PD=7.6e-07 PS=7.6e-07 fw=2.4e-07 sa=1.4e-07 sb=1.4e-07 sca=8.89317 scb=0.00718657 scc=0.000178238 $X=15180 $Y=16800 $dt=1
M78 91 a2 vdd! vdd! g45p1svt L=4.5e-08 W=2.4e-07 AD=3.36e-14 AS=3.36e-14 PD=7.6e-07 PS=7.6e-07 fw=2.4e-07 sa=1.4e-07 sb=1.4e-07 sca=11.0834 scb=0.00904972 scc=0.000187092 $X=15180 $Y=24120 $dt=1
M79 226 49 vdd! vdd! g45p1svt L=4.5e-08 W=4.8e-07 AD=6.72e-14 AS=6.72e-14 PD=1.24e-06 PS=1.24e-06 fw=4.8e-07 sa=1.4e-07 sb=1.4e-07 sca=12.3552 scb=0.0107648 scc=0.000891478 $X=15310 $Y=18720 $dt=1
M80 vdd! 60 63 vdd! g45p1svt L=4.5e-08 W=4.8e-07 AD=6.72e-14 AS=7.68e-14 PD=1.24e-06 PS=1.28e-06 fw=4.8e-07 sa=3.45e-07 sb=1.4e-07 sca=11.3137 scb=0.00981578 scc=0.000707604 $X=15320 $Y=1910 $dt=1
M81 vdd! 53 56 vdd! g45p1svt L=4.5e-08 W=4.8e-07 AD=6.72e-14 AS=7.68e-14 PD=1.24e-06 PS=1.28e-06 fw=4.8e-07 sa=3.45e-07 sb=1.4e-07 sca=11.3137 scb=0.00981578 scc=0.000707604 $X=15320 $Y=4050 $dt=1
M82 vdd! 30 223 vdd! g45p1svt L=4.5e-08 W=4.8e-07 AD=6.72e-14 AS=6.72e-14 PD=1.24e-06 PS=1.24e-06 fw=4.8e-07 sa=1.4e-07 sb=1.4e-07 sca=10.445 scb=0.0089239 scc=0.000559159 $X=16210 $Y=9260 $dt=1
M83 86 84 226 vdd! g45p1svt L=4.5e-08 W=4.8e-07 AD=6.72e-14 AS=6.72e-14 PD=1.24e-06 PS=1.24e-06 fw=4.8e-07 sa=1.4e-07 sb=1.4e-07 sca=10.445 scb=0.0089239 scc=0.000559159 $X=16280 $Y=18660 $dt=1
M84 50 93 vdd! vdd! g45p1svt L=4.5e-08 W=2.4e-07 AD=3.36e-14 AS=3.36e-14 PD=7.6e-07 PS=7.6e-07 fw=2.4e-07 sa=1.4e-07 sb=1.4e-07 sca=8.58543 scb=0.00668222 scc=0.000150123 $X=16860 $Y=11580 $dt=1
M85 22 92 vdd! vdd! g45p1svt L=4.5e-08 W=2.4e-07 AD=3.36e-14 AS=3.36e-14 PD=7.6e-07 PS=7.6e-07 fw=2.4e-07 sa=1.4e-07 sb=1.4e-07 sca=8.58543 scb=0.00668222 scc=0.000150123 $X=16860 $Y=16820 $dt=1
M86 49 91 vdd! vdd! g45p1svt L=4.5e-08 W=2.4e-07 AD=3.36e-14 AS=3.36e-14 PD=7.6e-07 PS=7.6e-07 fw=2.4e-07 sa=1.4e-07 sb=1.4e-07 sca=10.8846 scb=0.00870518 scc=0.000160728 $X=16860 $Y=24140 $dt=1
M87 223 66 67 vdd! g45p1svt L=4.5e-08 W=4.8e-07 AD=6.72e-14 AS=6.72e-14 PD=1.24e-06 PS=1.24e-06 fw=4.8e-07 sa=1.4e-07 sb=1.4e-07 sca=10.445 scb=0.0089239 scc=0.000559159 $X=17170 $Y=9260 $dt=1
M88 86 85 226 vdd! g45p1svt L=4.5e-08 W=4.8e-07 AD=6.72e-14 AS=6.72e-14 PD=1.24e-06 PS=1.24e-06 fw=4.8e-07 sa=1.4e-07 sb=1.4e-07 sca=10.445 scb=0.0089239 scc=0.000559159 $X=17240 $Y=18660 $dt=1
M89 64 19 vdd! vdd! g45p1svt L=4.5e-08 W=2.4e-07 AD=3.84e-14 AS=3.36e-14 PD=8e-07 PS=7.6e-07 fw=2.4e-07 sa=1.4e-07 sb=3.45e-07 sca=9.4037 scb=0.0080058 scc=0.000230225 $X=17890 $Y=2130 $dt=1
M90 57 29 vdd! vdd! g45p1svt L=4.5e-08 W=2.4e-07 AD=3.84e-14 AS=3.36e-14 PD=8e-07 PS=7.6e-07 fw=2.4e-07 sa=1.4e-07 sb=3.45e-07 sca=9.4037 scb=0.0080058 scc=0.000230225 $X=17890 $Y=4310 $dt=1
M91 223 65 67 vdd! g45p1svt L=4.5e-08 W=4.8e-07 AD=6.72e-14 AS=6.72e-14 PD=1.24e-06 PS=1.24e-06 fw=4.8e-07 sa=1.4e-07 sb=1.4e-07 sca=10.445 scb=0.0089239 scc=0.000559159 $X=18130 $Y=9260 $dt=1
M92 226 45 vdd! vdd! g45p1svt L=4.5e-08 W=4.8e-07 AD=6.72e-14 AS=6.72e-14 PD=1.24e-06 PS=1.24e-06 fw=4.8e-07 sa=1.4e-07 sb=1.4e-07 sca=10.445 scb=0.0089239 scc=0.000559159 $X=18200 $Y=18660 $dt=1
M93 vdd! 23 64 vdd! g45p1svt L=4.5e-08 W=2.4e-07 AD=3.36e-14 AS=3.84e-14 PD=7.6e-07 PS=8e-07 fw=2.4e-07 sa=3.45e-07 sb=1.4e-07 sca=9.4037 scb=0.0080058 scc=0.000230225 $X=18300 $Y=2130 $dt=1
M94 vdd! 31 57 vdd! g45p1svt L=4.5e-08 W=2.4e-07 AD=3.36e-14 AS=3.84e-14 PD=7.6e-07 PS=8e-07 fw=2.4e-07 sa=3.45e-07 sb=1.4e-07 sca=9.4037 scb=0.0080058 scc=0.000230225 $X=18300 $Y=4310 $dt=1
M95 102 50 vdd! vdd! g45p1svt L=4.5e-08 W=4.8e-07 AD=6.72e-14 AS=6.72e-14 PD=1.24e-06 PS=1.24e-06 fw=4.8e-07 sa=1.4e-07 sb=1.4e-07 sca=9.94249 scb=0.00836239 scc=0.000476878 $X=18340 $Y=11320 $dt=1
M96 104 b0 vdd! vdd! g45p1svt L=4.5e-08 W=2.4e-07 AD=3.36e-14 AS=3.36e-14 PD=7.6e-07 PS=7.6e-07 fw=2.4e-07 sa=1.4e-07 sb=1.4e-07 sca=11.1944 scb=0.00923888 scc=0.000202241 $X=18580 $Y=24110 $dt=1
M97 94 38 vdd! vdd! g45p1svt L=4.5e-08 W=2.4e-07 AD=3.36e-14 AS=3.36e-14 PD=7.6e-07 PS=7.6e-07 fw=2.4e-07 sa=1.4e-07 sb=1.4e-07 sca=9.58846 scb=0.0082963 scc=0.000250617 $X=18640 $Y=16760 $dt=1
M98 vdd! 47 223 vdd! g45p1svt L=4.5e-08 W=4.8e-07 AD=6.72e-14 AS=6.72e-14 PD=1.24e-06 PS=1.24e-06 fw=4.8e-07 sa=1.4e-07 sb=1.4e-07 sca=12.3552 scb=0.0107648 scc=0.000891478 $X=19100 $Y=9200 $dt=1
M99 95 32 vdd! vdd! g45p1svt L=4.5e-08 W=2.4e-07 AD=3.36e-14 AS=3.36e-14 PD=7.6e-07 PS=7.6e-07 fw=2.4e-07 sa=1.4e-07 sb=1.4e-07 sca=9.58846 scb=0.0082963 scc=0.000250617 $X=19600 $Y=16760 $dt=1