* +++++++++++++++++++++++++++++++++++++++++++++++++++++++++ *
* CDL Netlist:                                              *
*                                                           *
* Cell Name  : 10badder                                     *
* Netlisted  : Sun Nov 17 17:58:28 2024                     *
* Pegasus Version: 22.21-s012 Fri Mar 10 17:36:33 PST 2023  *
* +++++++++++++++++++++++++++++++++++++++++++++++++++++++++ *
*.LDD
*.DEVTMPLT 0 MN(g45n1svt) _nmos1v ndiff_conn(D) poly_conn(G) ndiff_conn(S) psubstrate(B)
*.DEVTMPLT 1 MP(g45p1svt) _pmos1v pdiff_conn(D) poly_conn(G) pdiff_conn(S) nwell_conn(B)

* +++++++++++++++++++++++++++++++++++++++++++++++++++++++++ *
* Sub cell: M4_M3_CDNS_1                                    *
* +++++++++++++++++++++++++++++++++++++++++++++++++++++++++ *
.subckt M4_M3_CDNS_1 1
** N=1 EP=1 FDC=0
.ends M4_M3_CDNS_1

* +++++++++++++++++++++++++++++++++++++++++++++++++++++++++ *
* Sub cell: M3_M2_CDNS_2                                    *
* +++++++++++++++++++++++++++++++++++++++++++++++++++++++++ *
.subckt M3_M2_CDNS_2 1
** N=1 EP=1 FDC=0
.ends M3_M2_CDNS_2

* +++++++++++++++++++++++++++++++++++++++++++++++++++++++++ *
* Sub cell: M2_M1_CDNS_3                                    *
* +++++++++++++++++++++++++++++++++++++++++++++++++++++++++ *
.subckt M2_M1_CDNS_3 1
** N=1 EP=1 FDC=0
.ends M2_M1_CDNS_3

* +++++++++++++++++++++++++++++++++++++++++++++++++++++++++ *
* Sub cell: M2_M1_CDNS_5                                    *
* +++++++++++++++++++++++++++++++++++++++++++++++++++++++++ *
.subckt M2_M1_CDNS_5 1
** N=1 EP=1 FDC=0
.ends M2_M1_CDNS_5

* +++++++++++++++++++++++++++++++++++++++++++++++++++++++++ *
* Sub cell: M1_PO_CDNS_8                                    *
* +++++++++++++++++++++++++++++++++++++++++++++++++++++++++ *
.subckt M1_PO_CDNS_8 1
** N=1 EP=1 FDC=0
.ends M1_PO_CDNS_8

* +++++++++++++++++++++++++++++++++++++++++++++++++++++++++ *
* Sub cell: M3_M2_CDNS_9                                    *
* +++++++++++++++++++++++++++++++++++++++++++++++++++++++++ *
.subckt M3_M2_CDNS_9 1
** N=1 EP=1 FDC=0
.ends M3_M2_CDNS_9

* +++++++++++++++++++++++++++++++++++++++++++++++++++++++++ *
* Sub cell: M2_M1_CDNS_10                                   *
* +++++++++++++++++++++++++++++++++++++++++++++++++++++++++ *
.subckt M2_M1_CDNS_10 1
** N=1 EP=1 FDC=0
.ends M2_M1_CDNS_10

* +++++++++++++++++++++++++++++++++++++++++++++++++++++++++ *
* Sub cell: M1_PO_CDNS_11                                   *
* +++++++++++++++++++++++++++++++++++++++++++++++++++++++++ *
.subckt M1_PO_CDNS_11 1
** N=1 EP=1 FDC=0
.ends M1_PO_CDNS_11

* +++++++++++++++++++++++++++++++++++++++++++++++++++++++++ *
* Sub cell: M2_M1_CDNS_12                                   *
* +++++++++++++++++++++++++++++++++++++++++++++++++++++++++ *
.subckt M2_M1_CDNS_12 1
** N=1 EP=1 FDC=0
.ends M2_M1_CDNS_12

* +++++++++++++++++++++++++++++++++++++++++++++++++++++++++ *
* Sub cell: M1_PO_CDNS_13                                   *
* +++++++++++++++++++++++++++++++++++++++++++++++++++++++++ *
.subckt M1_PO_CDNS_13 1
** N=1 EP=1 FDC=0
.ends M1_PO_CDNS_13

* +++++++++++++++++++++++++++++++++++++++++++++++++++++++++ *
* Sub cell: M3_M2_CDNS_14                                   *
* +++++++++++++++++++++++++++++++++++++++++++++++++++++++++ *
.subckt M3_M2_CDNS_14 1
** N=1 EP=1 FDC=0
.ends M3_M2_CDNS_14

* +++++++++++++++++++++++++++++++++++++++++++++++++++++++++ *
* Sub cell: pmos1v_CDNS_16                                  *
* +++++++++++++++++++++++++++++++++++++++++++++++++++++++++ *
.subckt pmos1v_CDNS_16 1 2 3 4 5
*.DEVICECLIMB
** N=5 EP=5 FDC=0
.ends pmos1v_CDNS_16

* +++++++++++++++++++++++++++++++++++++++++++++++++++++++++ *
* Sub cell: nmos1v_CDNS_17                                  *
* +++++++++++++++++++++++++++++++++++++++++++++++++++++++++ *
.subckt nmos1v_CDNS_17 1 2 3 4
*.DEVICECLIMB
** N=4 EP=4 FDC=0
.ends nmos1v_CDNS_17

* +++++++++++++++++++++++++++++++++++++++++++++++++++++++++ *
* Sub cell: pmos1v_CDNS_19                                  *
* +++++++++++++++++++++++++++++++++++++++++++++++++++++++++ *
.subckt pmos1v_CDNS_19 1 2 3 4 5
*.DEVICECLIMB
** N=5 EP=5 FDC=0
.ends pmos1v_CDNS_19

* +++++++++++++++++++++++++++++++++++++++++++++++++++++++++ *
* Sub cell: nmos1v_CDNS_20                                  *
* +++++++++++++++++++++++++++++++++++++++++++++++++++++++++ *
.subckt nmos1v_CDNS_20 1 2 3
*.DEVICECLIMB
** N=3 EP=3 FDC=0
.ends nmos1v_CDNS_20

* +++++++++++++++++++++++++++++++++++++++++++++++++++++++++ *
* Sub cell: nmos1v_CDNS_21                                  *
* +++++++++++++++++++++++++++++++++++++++++++++++++++++++++ *
.subckt nmos1v_CDNS_21 1 2 3 4
*.DEVICECLIMB
** N=4 EP=4 FDC=0
.ends nmos1v_CDNS_21

* +++++++++++++++++++++++++++++++++++++++++++++++++++++++++ *
* Sub cell: nmos1v_CDNS_22                                  *
* +++++++++++++++++++++++++++++++++++++++++++++++++++++++++ *
.subckt nmos1v_CDNS_22 1 2 3 4
*.DEVICECLIMB
** N=4 EP=4 FDC=0
.ends nmos1v_CDNS_22

* +++++++++++++++++++++++++++++++++++++++++++++++++++++++++ *
* Sub cell: pmos1v_CDNS_23                                  *
* +++++++++++++++++++++++++++++++++++++++++++++++++++++++++ *
.subckt pmos1v_CDNS_23 1 2 3 4 5
*.DEVICECLIMB
** N=5 EP=5 FDC=0
.ends pmos1v_CDNS_23

* +++++++++++++++++++++++++++++++++++++++++++++++++++++++++ *
* Sub cell: pmos1v_CDNS_24                                  *
* +++++++++++++++++++++++++++++++++++++++++++++++++++++++++ *
.subckt pmos1v_CDNS_24 1 2 3 4 5
*.DEVICECLIMB
** N=5 EP=5 FDC=0
.ends pmos1v_CDNS_24

* +++++++++++++++++++++++++++++++++++++++++++++++++++++++++ *
* Sub cell: MUX_2to1___2X                                   *
* +++++++++++++++++++++++++++++++++++++++++++++++++++++++++ *
.subckt MUX_2to1___2X 1 2 3 4 5 6 7 8 9 10
+ 11 12
** N=12 EP=12 FDC=12
X0 7 M2_M1_CDNS_3 $T=250 -3000 0 0 $X=170 $Y=-3250
X1 7 M2_M1_CDNS_3 $T=2620 -2730 0 0 $X=2540 $Y=-2980
X2 7 M1_PO_CDNS_8 $T=250 -3000 0 0 $X=150 $Y=-3250
X3 7 M1_PO_CDNS_8 $T=2620 -2730 0 0 $X=2520 $Y=-2980
X4 7 M3_M2_CDNS_9 $T=250 -3000 0 0 $X=170 $Y=-3250
X5 7 M3_M2_CDNS_9 $T=960 -2040 0 0 $X=880 $Y=-2290
X6 7 M3_M2_CDNS_9 $T=2620 -2730 0 0 $X=2540 $Y=-2980
X7 1 M2_M1_CDNS_10 $T=1300 -3500 0 0 $X=1220 $Y=-3750
X8 1 M2_M1_CDNS_10 $T=2660 -4240 0 0 $X=2580 $Y=-4490
X9 1 M1_PO_CDNS_11 $T=1300 -3500 0 0 $X=1200 $Y=-3750
X10 1 M1_PO_CDNS_11 $T=2660 -4240 0 0 $X=2560 $Y=-4490
X11 7 M2_M1_CDNS_12 $T=960 -2040 0 0 $X=880 $Y=-2290
X12 1 M1_PO_CDNS_13 $T=680 -3550 0 0 $X=580 $Y=-3670
X13 4 M1_PO_CDNS_13 $T=1300 -2090 0 0 $X=1200 $Y=-2210
X14 5 M1_PO_CDNS_13 $T=4040 -3180 0 0 $X=3940 $Y=-3300
X15 8 M1_PO_CDNS_13 $T=4300 -3670 0 90 $X=4180 $Y=-3770
X16 3 8 6 2 3 pmos1v_CDNS_16 $T=4580 -3180 0 0 $X=4160 $Y=-3380
X17 2 6 8 2 nmos1v_CDNS_17 $T=4580 -4500 0 0 $X=4160 $Y=-4700
X18 3 1 7 2 3 pmos1v_CDNS_19 $T=750 -2850 0 0 $X=330 $Y=-3050
X19 2 7 1 nmos1v_CDNS_20 $T=750 -4370 0 0 $X=330 $Y=-4570
X20 2 7 9 2 nmos1v_CDNS_21 $T=1990 -4420 0 0 $X=1790 $Y=-4620
X21 8 5 10 2 nmos1v_CDNS_21 $T=3370 -4430 0 0 $X=3170 $Y=-4630
X22 8 4 9 2 nmos1v_CDNS_22 $T=1780 -4420 0 0 $X=1360 $Y=-4620
X23 2 1 10 2 nmos1v_CDNS_22 $T=3160 -4430 0 0 $X=2740 $Y=-4630
X24 3 1 11 2 3 pmos1v_CDNS_23 $T=1990 -3120 0 0 $X=1790 $Y=-3320
X25 8 5 12 2 3 pmos1v_CDNS_23 $T=3370 -3190 0 0 $X=3170 $Y=-3390
X26 8 4 11 2 3 pmos1v_CDNS_24 $T=1780 -3120 0 0 $X=1360 $Y=-3320
X27 3 7 12 2 3 pmos1v_CDNS_24 $T=3160 -3190 0 0 $X=2740 $Y=-3390
M0 7 1 2 2 g45n1svt L=4.5e-08 W=1.2e-07 AD=1.68e-14 AS=1.68e-14 PD=5.2e-07 PS=5.2e-07 fw=1.2e-07 sa=1.4e-07 sb=1.4e-07 sca=9.04018 scb=0.00737277 scc=0.00014625 $X=750 $Y=-4370 $dt=0
M1 9 4 8 2 g45n1svt L=4.5e-08 W=2.4e-07 AD=1.44e-14 AS=3.36e-14 PD=6e-07 PS=7.6e-07 fw=2.4e-07 sa=1.4e-07 sb=2.45e-07 sca=10.8836 scb=0.0102333 scc=0.000414887 $X=1780 $Y=-4420 $dt=0
M2 2 7 9 2 g45n1svt L=4.5e-08 W=2.4e-07 AD=3.36e-14 AS=1.44e-14 PD=7.6e-07 PS=6e-07 fw=2.4e-07 sa=2.45e-07 sb=1.4e-07 sca=10.8836 scb=0.0102333 scc=0.000414887 $X=1990 $Y=-4420 $dt=0
M3 10 1 2 2 g45n1svt L=4.5e-08 W=2.4e-07 AD=1.44e-14 AS=3.36e-14 PD=6e-07 PS=7.6e-07 fw=2.4e-07 sa=1.4e-07 sb=2.45e-07 sca=10.6427 scb=0.00988663 scc=0.000381704 $X=3160 $Y=-4430 $dt=0
M4 8 5 10 2 g45n1svt L=4.5e-08 W=2.4e-07 AD=3.36e-14 AS=1.44e-14 PD=7.6e-07 PS=6e-07 fw=2.4e-07 sa=2.45e-07 sb=1.4e-07 sca=10.6427 scb=0.00988663 scc=0.000381704 $X=3370 $Y=-4430 $dt=0
M5 6 8 2 2 g45n1svt L=4.5e-08 W=2.4e-07 AD=3.36e-14 AS=3.36e-14 PD=7.6e-07 PS=7.6e-07 fw=2.4e-07 sa=1.4e-07 sb=1.4e-07 sca=9.22651 scb=0.00772413 scc=0.000211444 $X=4580 $Y=-4500 $dt=0
M6 7 1 3 3 g45p1svt L=4.5e-08 W=2.4e-07 AD=3.36e-14 AS=3.36e-14 PD=7.6e-07 PS=7.6e-07 fw=2.4e-07 sa=1.4e-07 sb=1.4e-07 sca=9.05646 scb=0.00745111 scc=0.000194153 $X=750 $Y=-2850 $dt=1
M7 11 4 8 3 g45p1svt L=4.5e-08 W=4.8e-07 AD=2.88e-14 AS=6.72e-14 PD=1.08e-06 PS=1.24e-06 fw=4.8e-07 sa=1.4e-07 sb=2.45e-07 sca=12.3552 scb=0.0107648 scc=0.000891478 $X=1780 $Y=-3120 $dt=1
M8 3 1 11 3 g45p1svt L=4.5e-08 W=4.8e-07 AD=6.72e-14 AS=2.88e-14 PD=1.24e-06 PS=1.08e-06 fw=4.8e-07 sa=2.45e-07 sb=1.4e-07 sca=12.3552 scb=0.0107648 scc=0.000891478 $X=1990 $Y=-3120 $dt=1
M9 12 7 3 3 g45p1svt L=4.5e-08 W=4.8e-07 AD=2.88e-14 AS=6.72e-14 PD=1.08e-06 PS=1.24e-06 fw=4.8e-07 sa=1.4e-07 sb=2.45e-07 sca=15.8127 scb=0.0131685 scc=0.00149596 $X=3160 $Y=-3190 $dt=1
M10 8 5 12 3 g45p1svt L=4.5e-08 W=4.8e-07 AD=6.72e-14 AS=2.88e-14 PD=1.24e-06 PS=1.08e-06 fw=4.8e-07 sa=2.45e-07 sb=1.4e-07 sca=15.8127 scb=0.0131685 scc=0.00149596 $X=3370 $Y=-3190 $dt=1
M11 6 8 3 3 g45p1svt L=4.5e-08 W=4.8e-07 AD=6.72e-14 AS=6.72e-14 PD=1.24e-06 PS=1.24e-06 fw=4.8e-07 sa=1.4e-07 sb=1.4e-07 sca=20.2373 scb=0.0194294 scc=0.00149528 $X=4580 $Y=-3180 $dt=1
.ends MUX_2to1___2X

* +++++++++++++++++++++++++++++++++++++++++++++++++++++++++ *
* Sub cell: cellTmpl_CDNS_27                                *
* +++++++++++++++++++++++++++++++++++++++++++++++++++++++++ *
.subckt cellTmpl_CDNS_27 1 2
*.DEVICECLIMB
** N=2 EP=2 FDC=0
.ends cellTmpl_CDNS_27

* +++++++++++++++++++++++++++++++++++++++++++++++++++++++++ *
* Sub cell: NAND_1X_small                                   *
* +++++++++++++++++++++++++++++++++++++++++++++++++++++++++ *
.subckt NAND_1X_small 1 2 3 4 5 6
*.DEVICECLIMB
** N=6 EP=6 FDC=2
X0 1 2 cellTmpl_CDNS_27 $T=-310 120 0 0 $X=-430 $Y=-20
M0 6 3 2 2 g45n1svt L=4.5e-08 W=2.4e-07 AD=1.44e-14 AS=3.36e-14 PD=6e-07 PS=7.6e-07 fw=2.4e-07 sa=1.4e-07 sb=2.45e-07 sca=12.2783 scb=0.012115 scc=0.000626647 $X=1000 $Y=830 $dt=0
M1 4 5 6 2 g45n1svt L=4.5e-08 W=2.4e-07 AD=3.36e-14 AS=1.44e-14 PD=7.6e-07 PS=6e-07 fw=2.4e-07 sa=2.45e-07 sb=1.4e-07 sca=12.2783 scb=0.012115 scc=0.000626647 $X=1210 $Y=830 $dt=0
.ends NAND_1X_small

* +++++++++++++++++++++++++++++++++++++++++++++++++++++++++ *
* Sub cell: XOR1                                            *
* +++++++++++++++++++++++++++++++++++++++++++++++++++++++++ *
.subckt XOR1 1 2 3 4 5 6 7 8 9 10
*.DEVICECLIMB
** N=10 EP=10 FDC=6
X0 6 M2_M1_CDNS_5 $T=1210 1480 0 90 $X=1080 $Y=1400
X1 7 M2_M1_CDNS_5 $T=2250 1860 0 90 $X=2120 $Y=1780
X2 6 M2_M1_CDNS_5 $T=2950 1480 0 90 $X=2820 $Y=1400
X3 8 M2_M1_CDNS_5 $T=3370 650 0 0 $X=3290 $Y=520
X4 9 M2_M1_CDNS_5 $T=3370 3080 0 0 $X=3290 $Y=2950
X5 9 M2_M1_CDNS_5 $T=3930 3080 0 0 $X=3850 $Y=2950
X6 7 M2_M1_CDNS_5 $T=4680 1860 0 90 $X=4550 $Y=1780
X7 9 M2_M1_CDNS_5 $T=4890 3070 0 0 $X=4810 $Y=2940
X8 8 M2_M1_CDNS_5 $T=5840 640 0 0 $X=5760 $Y=510
X9 9 M2_M1_CDNS_5 $T=6260 3080 0 0 $X=6180 $Y=2950
X10 6 M1_PO_CDNS_13 $T=4020 1500 0 90 $X=3900 $Y=1400
X11 7 M1_PO_CDNS_13 $T=5020 1730 0 90 $X=4900 $Y=1630
X12 1 4 9 2 1 pmos1v_CDNS_16 $T=3120 2080 0 0 $X=2700 $Y=1880
X13 9 6 5 2 1 pmos1v_CDNS_16 $T=4090 2140 0 0 $X=3670 $Y=1940
X14 9 7 5 2 1 pmos1v_CDNS_16 $T=5050 2140 0 0 $X=4630 $Y=1940
X15 1 3 9 2 1 pmos1v_CDNS_16 $T=6010 2140 0 0 $X=5590 $Y=1940
X16 2 8 4 2 nmos1v_CDNS_17 $T=3120 780 0 0 $X=2700 $Y=580
X17 10 5 6 2 nmos1v_CDNS_17 $T=4090 760 0 0 $X=3670 $Y=560
X18 10 2 7 2 nmos1v_CDNS_17 $T=5050 770 0 0 $X=4630 $Y=570
X19 8 5 3 2 nmos1v_CDNS_17 $T=6010 770 0 0 $X=5590 $Y=570
X20 1 3 6 2 1 pmos1v_CDNS_19 $T=830 2320 0 0 $X=410 $Y=2120
X21 1 4 7 2 1 pmos1v_CDNS_19 $T=1790 2320 0 0 $X=1370 $Y=2120
X22 2 6 3 nmos1v_CDNS_20 $T=830 840 0 0 $X=410 $Y=640
X23 2 7 4 nmos1v_CDNS_20 $T=1790 840 0 0 $X=1370 $Y=640
M0 6 3 2 2 g45n1svt L=4.5e-08 W=1.2e-07 AD=1.68e-14 AS=1.68e-14 PD=5.2e-07 PS=5.2e-07 fw=1.2e-07 sa=1.4e-07 sb=1.4e-07 sca=9.20059 scb=0.00764836 scc=0.000159521 $X=830 $Y=840 $dt=0
M1 7 4 2 2 g45n1svt L=4.5e-08 W=1.2e-07 AD=1.68e-14 AS=1.68e-14 PD=5.2e-07 PS=5.2e-07 fw=1.2e-07 sa=1.4e-07 sb=1.4e-07 sca=9.20059 scb=0.00764836 scc=0.000159521 $X=1790 $Y=840 $dt=0
M2 8 4 2 2 g45n1svt L=4.5e-08 W=2.4e-07 AD=3.36e-14 AS=3.36e-14 PD=7.6e-07 PS=7.6e-07 fw=2.4e-07 sa=1.4e-07 sb=1.4e-07 sca=10.8836 scb=0.0102333 scc=0.000414887 $X=3120 $Y=780 $dt=0
M3 5 6 10 2 g45n1svt L=4.5e-08 W=2.4e-07 AD=3.36e-14 AS=3.36e-14 PD=7.6e-07 PS=7.6e-07 fw=2.4e-07 sa=1.4e-07 sb=1.4e-07 sca=10.4126 scb=0.0095497 scc=0.000351079 $X=4090 $Y=760 $dt=0
M4 2 7 10 2 g45n1svt L=4.5e-08 W=2.4e-07 AD=3.36e-14 AS=3.36e-14 PD=7.6e-07 PS=7.6e-07 fw=2.4e-07 sa=1.4e-07 sb=1.4e-07 sca=10.6427 scb=0.00988663 scc=0.000381704 $X=5050 $Y=770 $dt=0
M5 5 3 8 2 g45n1svt L=4.5e-08 W=2.4e-07 AD=3.36e-14 AS=3.36e-14 PD=7.6e-07 PS=7.6e-07 fw=2.4e-07 sa=1.4e-07 sb=1.4e-07 sca=10.6427 scb=0.00988663 scc=0.000381704 $X=6010 $Y=770 $dt=0
.ends XOR1

* +++++++++++++++++++++++++++++++++++++++++++++++++++++++++ *
* Sub cell: NAND_2X_small1                                  *
* +++++++++++++++++++++++++++++++++++++++++++++++++++++++++ *
.subckt NAND_2X_small1 1 2 3 4 5 6
*.DEVICECLIMB
** N=6 EP=6 FDC=2
X0 1 2 cellTmpl_CDNS_27 $T=130 160 0 0 $X=10 $Y=20
M0 6 4 2 2 g45n1svt L=4.5e-08 W=4.8e-07 AD=2.88e-14 AS=6.72e-14 PD=1.08e-06 PS=1.24e-06 fw=4.8e-07 sa=1.4e-07 sb=2.45e-07 sca=7.66878 scb=0.00580736 scc=7.77234e-05 $X=940 $Y=890 $dt=0
M1 3 5 6 2 g45n1svt L=4.5e-08 W=4.8e-07 AD=6.72e-14 AS=2.88e-14 PD=1.24e-06 PS=1.08e-06 fw=4.8e-07 sa=2.45e-07 sb=1.4e-07 sca=11.676 scb=0.0124835 scc=0.000479408 $X=940 $Y=1100 $dt=0
.ends NAND_2X_small1

* +++++++++++++++++++++++++++++++++++++++++++++++++++++++++ *
* Sub cell: full_adder1_small                               *
* +++++++++++++++++++++++++++++++++++++++++++++++++++++++++ *
.subckt full_adder1_small 1 2 3 4 5 6 7 8 9 10
+ 11 12 13 14 22 23
*.DEVICECLIMB
** N=23 EP=16 FDC=18
X0 1 M2_M1_CDNS_3 $T=590 2080 0 90 $X=340 $Y=2000
X1 2 M2_M1_CDNS_3 $T=2300 3150 0 90 $X=2050 $Y=3070
X2 1 M2_M1_CDNS_3 $T=17380 1890 0 0 $X=17300 $Y=1640
X3 2 M2_M1_CDNS_3 $T=19040 3010 0 0 $X=18960 $Y=2760
X4 8 M2_M1_CDNS_5 $T=6580 1900 0 0 $X=6500 $Y=1770
X5 9 M2_M1_CDNS_5 $T=15190 1730 0 90 $X=15060 $Y=1650
X6 1 M1_PO_CDNS_8 $T=590 2080 0 90 $X=340 $Y=1980
X7 2 M1_PO_CDNS_8 $T=2300 3150 0 90 $X=2050 $Y=3050
X8 1 M1_PO_CDNS_8 $T=17380 1890 0 0 $X=17280 $Y=1640
X9 2 M1_PO_CDNS_8 $T=19040 3010 0 0 $X=18940 $Y=2760
X10 1 M3_M2_CDNS_9 $T=590 2080 0 90 $X=340 $Y=2000
X11 2 M3_M2_CDNS_9 $T=2300 3150 0 90 $X=2050 $Y=3070
X12 1 M3_M2_CDNS_9 $T=17380 1890 0 0 $X=17300 $Y=1640
X13 2 M3_M2_CDNS_9 $T=19040 3010 0 0 $X=18960 $Y=2760
X14 8 M2_M1_CDNS_10 $T=8510 1970 0 0 $X=8430 $Y=1720
X15 8 M2_M1_CDNS_10 $T=16110 1570 0 0 $X=16030 $Y=1320
X16 9 M2_M1_CDNS_10 $T=20260 1840 0 0 $X=20180 $Y=1590
X17 8 M1_PO_CDNS_11 $T=8510 1970 0 0 $X=8410 $Y=1720
X18 8 M1_PO_CDNS_11 $T=16110 1570 0 0 $X=16010 $Y=1320
X19 9 M1_PO_CDNS_11 $T=20260 1840 0 0 $X=20160 $Y=1590
X20 1 M1_PO_CDNS_13 $T=690 1610 0 0 $X=590 $Y=1490
X21 2 M1_PO_CDNS_13 $T=1650 1990 0 0 $X=1550 $Y=1870
X22 5 M1_PO_CDNS_13 $T=7590 1960 0 0 $X=7490 $Y=1840
X23 10 M1_PO_CDNS_13 $T=19320 1680 0 0 $X=19220 $Y=1560
X24 8 M3_M2_CDNS_14 $T=6970 950 0 0 $X=6890 $Y=820
X25 8 M3_M2_CDNS_14 $T=14100 570 0 90 $X=13970 $Y=490
X26 3 4 1 10 2 20 NAND_1X_small $T=16970 30 0 0 $X=16540 $Y=10
X27 3 4 9 7 10 21 NAND_1X_small $T=19810 30 0 0 $X=19380 $Y=10
X28 3 4 9 5 8 19 NAND_2X_small1 $T=13690 -10 0 0 $X=13700 $Y=10
X29 3 4 1 2 8 11 12 15 22 16 XOR1 $T=-40 30 0 0 $X=20 $Y=10
X30 3 4 5 8 6 13 14 17 23 18 XOR1 $T=6800 30 0 0 $X=6860 $Y=10
.ends full_adder1_small

* +++++++++++++++++++++++++++++++++++++++++++++++++++++++++ *
* Sub cell: FA_4bit                                         *
* +++++++++++++++++++++++++++++++++++++++++++++++++++++++++ *
.subckt FA_4bit 1 2 3 4 5 6 7 8 9 10
+ 11 12 13 14 15 16 17 18 19
** N=83 EP=19 FDC=144
X0 17 M4_M3_CDNS_1 $T=14030 6120 0 0 $X=13950 $Y=5870
X1 18 M4_M3_CDNS_1 $T=16960 11880 0 0 $X=16880 $Y=11630
X2 17 M4_M3_CDNS_1 $T=19730 4760 0 0 $X=19650 $Y=4510
X3 18 M4_M3_CDNS_1 $T=22610 11350 0 0 $X=22530 $Y=11100
X4 17 M3_M2_CDNS_2 $T=14030 6120 0 0 $X=13950 $Y=5870
X5 18 M3_M2_CDNS_2 $T=16960 11880 0 0 $X=16880 $Y=11630
X6 18 M3_M2_CDNS_2 $T=22610 11350 0 0 $X=22530 $Y=11100
X7 17 M2_M1_CDNS_3 $T=14030 6120 0 0 $X=13950 $Y=5870
X8 18 M2_M1_CDNS_3 $T=16960 11880 0 0 $X=16880 $Y=11630
X9 19 M2_M1_CDNS_3 $T=18840 8310 0 0 $X=18760 $Y=8060
X10 18 M2_M1_CDNS_3 $T=22610 11350 0 0 $X=22530 $Y=11100
X11 1 M2_M1_CDNS_5 $T=-80 3540 0 0 $X=-160 $Y=3410
X12 1 M2_M1_CDNS_5 $T=-80 10890 0 0 $X=-160 $Y=10760
X13 17 M2_M1_CDNS_5 $T=21770 2020 0 0 $X=21690 $Y=1890
X14 19 M2_M1_CDNS_5 $T=21770 5100 0 0 $X=21690 $Y=4970
X15 17 M1_PO_CDNS_8 $T=14030 6120 0 0 $X=13930 $Y=5870
X16 18 M1_PO_CDNS_8 $T=16960 11880 0 0 $X=16860 $Y=11630
X17 19 M1_PO_CDNS_8 $T=18840 8310 0 0 $X=18740 $Y=8060
X18 19 M3_M2_CDNS_9 $T=18840 8310 0 0 $X=18760 $Y=8060
X19 19 M3_M2_CDNS_14 $T=21980 9220 0 0 $X=21900 $Y=9090
X20 3 2 1 10 11 12 17 43 46 47
+ 41 42 44 45 82 83 full_adder1_small $T=-90 -130 0 0 $X=-70 $Y=-120
X21 5 4 1 10 17 13 19 36 39 40
+ 34 35 37 38 80 81 full_adder1_small $T=-90 7250 1 0 $X=-70 $Y=3440
X22 7 6 1 10 19 14 18 29 32 33
+ 27 28 30 31 78 79 full_adder1_small $T=-90 7190 0 0 $X=-70 $Y=7200
X23 9 8 1 10 18 15 16 22 25 26
+ 20 21 23 24 76 77 full_adder1_small $T=-90 14570 1 0 $X=-70 $Y=10760
M0 41 3 1 1 g45p1svt L=4.5e-08 W=2.4e-07 AD=3.36e-14 AS=3.36e-14 PD=7.6e-07 PS=7.6e-07 fw=2.4e-07 sa=1.4e-07 sb=1.4e-07 sca=14.672 scb=0.0152131 scc=0.000371293 $X=700 $Y=2220 $dt=1
M1 34 5 1 1 g45p1svt L=4.5e-08 W=2.4e-07 AD=3.36e-14 AS=3.36e-14 PD=7.6e-07 PS=7.6e-07 fw=2.4e-07 sa=1.4e-07 sb=1.4e-07 sca=14.672 scb=0.0152131 scc=0.000371293 $X=700 $Y=4420 $dt=1
M2 27 7 1 1 g45p1svt L=4.5e-08 W=2.4e-07 AD=3.36e-14 AS=3.36e-14 PD=7.6e-07 PS=7.6e-07 fw=2.4e-07 sa=1.4e-07 sb=1.4e-07 sca=14.672 scb=0.0152131 scc=0.000371293 $X=700 $Y=9540 $dt=1
M3 20 9 1 1 g45p1svt L=4.5e-08 W=2.4e-07 AD=3.36e-14 AS=3.36e-14 PD=7.6e-07 PS=7.6e-07 fw=2.4e-07 sa=1.4e-07 sb=1.4e-07 sca=14.672 scb=0.0152131 scc=0.000371293 $X=700 $Y=11740 $dt=1
M4 42 2 1 1 g45p1svt L=4.5e-08 W=2.4e-07 AD=3.36e-14 AS=3.36e-14 PD=7.6e-07 PS=7.6e-07 fw=2.4e-07 sa=1.4e-07 sb=1.4e-07 sca=9.90193 scb=0.0083839 scc=0.000250634 $X=1660 $Y=2220 $dt=1
M5 35 4 1 1 g45p1svt L=4.5e-08 W=2.4e-07 AD=3.36e-14 AS=3.36e-14 PD=7.6e-07 PS=7.6e-07 fw=2.4e-07 sa=1.4e-07 sb=1.4e-07 sca=9.90193 scb=0.0083839 scc=0.000250634 $X=1660 $Y=4420 $dt=1
M6 28 6 1 1 g45p1svt L=4.5e-08 W=2.4e-07 AD=3.36e-14 AS=3.36e-14 PD=7.6e-07 PS=7.6e-07 fw=2.4e-07 sa=1.4e-07 sb=1.4e-07 sca=9.90193 scb=0.0083839 scc=0.000250634 $X=1660 $Y=9540 $dt=1
M7 21 8 1 1 g45p1svt L=4.5e-08 W=2.4e-07 AD=3.36e-14 AS=3.36e-14 PD=7.6e-07 PS=7.6e-07 fw=2.4e-07 sa=1.4e-07 sb=1.4e-07 sca=9.90193 scb=0.0083839 scc=0.000250634 $X=1660 $Y=11740 $dt=1
M8 82 2 1 1 g45p1svt L=4.5e-08 W=4.8e-07 AD=6.72e-14 AS=6.72e-14 PD=1.24e-06 PS=1.24e-06 fw=4.8e-07 sa=1.4e-07 sb=1.4e-07 sca=12.3552 scb=0.0107648 scc=0.000891478 $X=2990 $Y=1980 $dt=1
M9 80 4 1 1 g45p1svt L=4.5e-08 W=4.8e-07 AD=6.72e-14 AS=6.72e-14 PD=1.24e-06 PS=1.24e-06 fw=4.8e-07 sa=1.4e-07 sb=1.4e-07 sca=12.3552 scb=0.0107648 scc=0.000891478 $X=2990 $Y=4180 $dt=1
M10 78 6 1 1 g45p1svt L=4.5e-08 W=4.8e-07 AD=6.72e-14 AS=6.72e-14 PD=1.24e-06 PS=1.24e-06 fw=4.8e-07 sa=1.4e-07 sb=1.4e-07 sca=12.3552 scb=0.0107648 scc=0.000891478 $X=2990 $Y=9300 $dt=1
M11 76 8 1 1 g45p1svt L=4.5e-08 W=4.8e-07 AD=6.72e-14 AS=6.72e-14 PD=1.24e-06 PS=1.24e-06 fw=4.8e-07 sa=1.4e-07 sb=1.4e-07 sca=12.3552 scb=0.0107648 scc=0.000891478 $X=2990 $Y=11500 $dt=1
M12 43 41 82 1 g45p1svt L=4.5e-08 W=4.8e-07 AD=6.72e-14 AS=6.72e-14 PD=1.24e-06 PS=1.24e-06 fw=4.8e-07 sa=1.4e-07 sb=1.4e-07 sca=10.445 scb=0.0089239 scc=0.000559159 $X=3960 $Y=2040 $dt=1
M13 36 34 80 1 g45p1svt L=4.5e-08 W=4.8e-07 AD=6.72e-14 AS=6.72e-14 PD=1.24e-06 PS=1.24e-06 fw=4.8e-07 sa=1.4e-07 sb=1.4e-07 sca=10.445 scb=0.0089239 scc=0.000559159 $X=3960 $Y=4120 $dt=1
M14 29 27 78 1 g45p1svt L=4.5e-08 W=4.8e-07 AD=6.72e-14 AS=6.72e-14 PD=1.24e-06 PS=1.24e-06 fw=4.8e-07 sa=1.4e-07 sb=1.4e-07 sca=10.445 scb=0.0089239 scc=0.000559159 $X=3960 $Y=9360 $dt=1
M15 22 20 76 1 g45p1svt L=4.5e-08 W=4.8e-07 AD=6.72e-14 AS=6.72e-14 PD=1.24e-06 PS=1.24e-06 fw=4.8e-07 sa=1.4e-07 sb=1.4e-07 sca=10.445 scb=0.0089239 scc=0.000559159 $X=3960 $Y=11440 $dt=1
M16 43 42 82 1 g45p1svt L=4.5e-08 W=4.8e-07 AD=6.72e-14 AS=6.72e-14 PD=1.24e-06 PS=1.24e-06 fw=4.8e-07 sa=1.4e-07 sb=1.4e-07 sca=10.445 scb=0.0089239 scc=0.000559159 $X=4920 $Y=2040 $dt=1
M17 36 35 80 1 g45p1svt L=4.5e-08 W=4.8e-07 AD=6.72e-14 AS=6.72e-14 PD=1.24e-06 PS=1.24e-06 fw=4.8e-07 sa=1.4e-07 sb=1.4e-07 sca=10.445 scb=0.0089239 scc=0.000559159 $X=4920 $Y=4120 $dt=1
M18 29 28 78 1 g45p1svt L=4.5e-08 W=4.8e-07 AD=6.72e-14 AS=6.72e-14 PD=1.24e-06 PS=1.24e-06 fw=4.8e-07 sa=1.4e-07 sb=1.4e-07 sca=10.445 scb=0.0089239 scc=0.000559159 $X=4920 $Y=9360 $dt=1
M19 22 21 76 1 g45p1svt L=4.5e-08 W=4.8e-07 AD=6.72e-14 AS=6.72e-14 PD=1.24e-06 PS=1.24e-06 fw=4.8e-07 sa=1.4e-07 sb=1.4e-07 sca=10.445 scb=0.0089239 scc=0.000559159 $X=4920 $Y=11440 $dt=1
M20 82 3 1 1 g45p1svt L=4.5e-08 W=4.8e-07 AD=6.72e-14 AS=6.72e-14 PD=1.24e-06 PS=1.24e-06 fw=4.8e-07 sa=1.4e-07 sb=1.4e-07 sca=10.445 scb=0.0089239 scc=0.000559159 $X=5880 $Y=2040 $dt=1
M21 80 5 1 1 g45p1svt L=4.5e-08 W=4.8e-07 AD=6.72e-14 AS=6.72e-14 PD=1.24e-06 PS=1.24e-06 fw=4.8e-07 sa=1.4e-07 sb=1.4e-07 sca=10.445 scb=0.0089239 scc=0.000559159 $X=5880 $Y=4120 $dt=1
M22 78 7 1 1 g45p1svt L=4.5e-08 W=4.8e-07 AD=6.72e-14 AS=6.72e-14 PD=1.24e-06 PS=1.24e-06 fw=4.8e-07 sa=1.4e-07 sb=1.4e-07 sca=10.445 scb=0.0089239 scc=0.000559159 $X=5880 $Y=9360 $dt=1
M23 76 9 1 1 g45p1svt L=4.5e-08 W=4.8e-07 AD=6.72e-14 AS=6.72e-14 PD=1.24e-06 PS=1.24e-06 fw=4.8e-07 sa=1.4e-07 sb=1.4e-07 sca=10.445 scb=0.0089239 scc=0.000559159 $X=5880 $Y=11440 $dt=1
M24 44 11 1 1 g45p1svt L=4.5e-08 W=2.4e-07 AD=3.36e-14 AS=3.36e-14 PD=7.6e-07 PS=7.6e-07 fw=2.4e-07 sa=1.4e-07 sb=1.4e-07 sca=9.58846 scb=0.0082963 scc=0.000250617 $X=7540 $Y=2220 $dt=1
M25 37 17 1 1 g45p1svt L=4.5e-08 W=2.4e-07 AD=3.36e-14 AS=3.36e-14 PD=7.6e-07 PS=7.6e-07 fw=2.4e-07 sa=1.4e-07 sb=1.4e-07 sca=9.58846 scb=0.0082963 scc=0.000250617 $X=7540 $Y=4420 $dt=1
M26 30 19 1 1 g45p1svt L=4.5e-08 W=2.4e-07 AD=3.36e-14 AS=3.36e-14 PD=7.6e-07 PS=7.6e-07 fw=2.4e-07 sa=1.4e-07 sb=1.4e-07 sca=9.58846 scb=0.0082963 scc=0.000250617 $X=7540 $Y=9540 $dt=1
M27 23 18 1 1 g45p1svt L=4.5e-08 W=2.4e-07 AD=3.36e-14 AS=3.36e-14 PD=7.6e-07 PS=7.6e-07 fw=2.4e-07 sa=1.4e-07 sb=1.4e-07 sca=9.58846 scb=0.0082963 scc=0.000250617 $X=7540 $Y=11740 $dt=1
M28 45 43 1 1 g45p1svt L=4.5e-08 W=2.4e-07 AD=3.36e-14 AS=3.36e-14 PD=7.6e-07 PS=7.6e-07 fw=2.4e-07 sa=1.4e-07 sb=1.4e-07 sca=9.58846 scb=0.0082963 scc=0.000250617 $X=8500 $Y=2220 $dt=1
M29 38 36 1 1 g45p1svt L=4.5e-08 W=2.4e-07 AD=3.36e-14 AS=3.36e-14 PD=7.6e-07 PS=7.6e-07 fw=2.4e-07 sa=1.4e-07 sb=1.4e-07 sca=9.58846 scb=0.0082963 scc=0.000250617 $X=8500 $Y=4420 $dt=1
M30 31 29 1 1 g45p1svt L=4.5e-08 W=2.4e-07 AD=3.36e-14 AS=3.36e-14 PD=7.6e-07 PS=7.6e-07 fw=2.4e-07 sa=1.4e-07 sb=1.4e-07 sca=9.58846 scb=0.0082963 scc=0.000250617 $X=8500 $Y=9540 $dt=1
M31 24 22 1 1 g45p1svt L=4.5e-08 W=2.4e-07 AD=3.36e-14 AS=3.36e-14 PD=7.6e-07 PS=7.6e-07 fw=2.4e-07 sa=1.4e-07 sb=1.4e-07 sca=9.58846 scb=0.0082963 scc=0.000250617 $X=8500 $Y=11740 $dt=1
M32 83 43 1 1 g45p1svt L=4.5e-08 W=4.8e-07 AD=6.72e-14 AS=6.72e-14 PD=1.24e-06 PS=1.24e-06 fw=4.8e-07 sa=1.4e-07 sb=1.4e-07 sca=12.3552 scb=0.0107648 scc=0.000891478 $X=9830 $Y=1980 $dt=1
M33 81 36 1 1 g45p1svt L=4.5e-08 W=4.8e-07 AD=6.72e-14 AS=6.72e-14 PD=1.24e-06 PS=1.24e-06 fw=4.8e-07 sa=1.4e-07 sb=1.4e-07 sca=12.3552 scb=0.0107648 scc=0.000891478 $X=9830 $Y=4180 $dt=1
M34 79 29 1 1 g45p1svt L=4.5e-08 W=4.8e-07 AD=6.72e-14 AS=6.72e-14 PD=1.24e-06 PS=1.24e-06 fw=4.8e-07 sa=1.4e-07 sb=1.4e-07 sca=12.3552 scb=0.0107648 scc=0.000891478 $X=9830 $Y=9300 $dt=1
M35 77 22 1 1 g45p1svt L=4.5e-08 W=4.8e-07 AD=6.72e-14 AS=6.72e-14 PD=1.24e-06 PS=1.24e-06 fw=4.8e-07 sa=1.4e-07 sb=1.4e-07 sca=12.3552 scb=0.0107648 scc=0.000891478 $X=9830 $Y=11500 $dt=1
M36 12 44 83 1 g45p1svt L=4.5e-08 W=4.8e-07 AD=6.72e-14 AS=6.72e-14 PD=1.24e-06 PS=1.24e-06 fw=4.8e-07 sa=1.4e-07 sb=1.4e-07 sca=10.445 scb=0.0089239 scc=0.000559159 $X=10800 $Y=2040 $dt=1
M37 13 37 81 1 g45p1svt L=4.5e-08 W=4.8e-07 AD=6.72e-14 AS=6.72e-14 PD=1.24e-06 PS=1.24e-06 fw=4.8e-07 sa=1.4e-07 sb=1.4e-07 sca=10.445 scb=0.0089239 scc=0.000559159 $X=10800 $Y=4120 $dt=1
M38 14 30 79 1 g45p1svt L=4.5e-08 W=4.8e-07 AD=6.72e-14 AS=6.72e-14 PD=1.24e-06 PS=1.24e-06 fw=4.8e-07 sa=1.4e-07 sb=1.4e-07 sca=10.445 scb=0.0089239 scc=0.000559159 $X=10800 $Y=9360 $dt=1
M39 15 23 77 1 g45p1svt L=4.5e-08 W=4.8e-07 AD=6.72e-14 AS=6.72e-14 PD=1.24e-06 PS=1.24e-06 fw=4.8e-07 sa=1.4e-07 sb=1.4e-07 sca=10.445 scb=0.0089239 scc=0.000559159 $X=10800 $Y=11440 $dt=1
M40 12 45 83 1 g45p1svt L=4.5e-08 W=4.8e-07 AD=6.72e-14 AS=6.72e-14 PD=1.24e-06 PS=1.24e-06 fw=4.8e-07 sa=1.4e-07 sb=1.4e-07 sca=10.445 scb=0.0089239 scc=0.000559159 $X=11760 $Y=2040 $dt=1
M41 13 38 81 1 g45p1svt L=4.5e-08 W=4.8e-07 AD=6.72e-14 AS=6.72e-14 PD=1.24e-06 PS=1.24e-06 fw=4.8e-07 sa=1.4e-07 sb=1.4e-07 sca=10.445 scb=0.0089239 scc=0.000559159 $X=11760 $Y=4120 $dt=1
M42 14 31 79 1 g45p1svt L=4.5e-08 W=4.8e-07 AD=6.72e-14 AS=6.72e-14 PD=1.24e-06 PS=1.24e-06 fw=4.8e-07 sa=1.4e-07 sb=1.4e-07 sca=10.445 scb=0.0089239 scc=0.000559159 $X=11760 $Y=9360 $dt=1
M43 15 24 77 1 g45p1svt L=4.5e-08 W=4.8e-07 AD=6.72e-14 AS=6.72e-14 PD=1.24e-06 PS=1.24e-06 fw=4.8e-07 sa=1.4e-07 sb=1.4e-07 sca=10.445 scb=0.0089239 scc=0.000559159 $X=11760 $Y=11440 $dt=1
M44 83 11 1 1 g45p1svt L=4.5e-08 W=4.8e-07 AD=6.72e-14 AS=6.72e-14 PD=1.24e-06 PS=1.24e-06 fw=4.8e-07 sa=1.4e-07 sb=1.4e-07 sca=10.445 scb=0.0089239 scc=0.000559159 $X=12720 $Y=2040 $dt=1
M45 81 17 1 1 g45p1svt L=4.5e-08 W=4.8e-07 AD=6.72e-14 AS=6.72e-14 PD=1.24e-06 PS=1.24e-06 fw=4.8e-07 sa=1.4e-07 sb=1.4e-07 sca=10.445 scb=0.0089239 scc=0.000559159 $X=12720 $Y=4120 $dt=1
M46 79 19 1 1 g45p1svt L=4.5e-08 W=4.8e-07 AD=6.72e-14 AS=6.72e-14 PD=1.24e-06 PS=1.24e-06 fw=4.8e-07 sa=1.4e-07 sb=1.4e-07 sca=10.445 scb=0.0089239 scc=0.000559159 $X=12720 $Y=9360 $dt=1
M47 77 18 1 1 g45p1svt L=4.5e-08 W=4.8e-07 AD=6.72e-14 AS=6.72e-14 PD=1.24e-06 PS=1.24e-06 fw=4.8e-07 sa=1.4e-07 sb=1.4e-07 sca=10.445 scb=0.0089239 scc=0.000559159 $X=12720 $Y=11440 $dt=1
M48 46 11 1 1 g45p1svt L=4.5e-08 W=4.8e-07 AD=7.68e-14 AS=6.72e-14 PD=1.28e-06 PS=1.24e-06 fw=4.8e-07 sa=1.4e-07 sb=3.45e-07 sca=11.3137 scb=0.00981578 scc=0.000707604 $X=14790 $Y=2010 $dt=1
M49 39 17 1 1 g45p1svt L=4.5e-08 W=4.8e-07 AD=7.68e-14 AS=6.72e-14 PD=1.28e-06 PS=1.24e-06 fw=4.8e-07 sa=1.4e-07 sb=3.45e-07 sca=11.3137 scb=0.00981578 scc=0.000707604 $X=14790 $Y=4150 $dt=1
M50 32 19 1 1 g45p1svt L=4.5e-08 W=4.8e-07 AD=7.68e-14 AS=6.72e-14 PD=1.28e-06 PS=1.24e-06 fw=4.8e-07 sa=1.4e-07 sb=3.45e-07 sca=11.3137 scb=0.00981578 scc=0.000707604 $X=14790 $Y=9330 $dt=1
M51 25 18 1 1 g45p1svt L=4.5e-08 W=4.8e-07 AD=7.68e-14 AS=6.72e-14 PD=1.28e-06 PS=1.24e-06 fw=4.8e-07 sa=1.4e-07 sb=3.45e-07 sca=11.3137 scb=0.00981578 scc=0.000707604 $X=14790 $Y=11470 $dt=1
M52 1 43 46 1 g45p1svt L=4.5e-08 W=4.8e-07 AD=6.72e-14 AS=7.68e-14 PD=1.24e-06 PS=1.28e-06 fw=4.8e-07 sa=3.45e-07 sb=1.4e-07 sca=11.3137 scb=0.00981578 scc=0.000707604 $X=15200 $Y=2010 $dt=1
M53 1 36 39 1 g45p1svt L=4.5e-08 W=4.8e-07 AD=6.72e-14 AS=7.68e-14 PD=1.24e-06 PS=1.28e-06 fw=4.8e-07 sa=3.45e-07 sb=1.4e-07 sca=11.3137 scb=0.00981578 scc=0.000707604 $X=15200 $Y=4150 $dt=1
M54 1 29 32 1 g45p1svt L=4.5e-08 W=4.8e-07 AD=6.72e-14 AS=7.68e-14 PD=1.24e-06 PS=1.28e-06 fw=4.8e-07 sa=3.45e-07 sb=1.4e-07 sca=11.3137 scb=0.00981578 scc=0.000707604 $X=15200 $Y=9330 $dt=1
M55 1 22 25 1 g45p1svt L=4.5e-08 W=4.8e-07 AD=6.72e-14 AS=7.68e-14 PD=1.24e-06 PS=1.28e-06 fw=4.8e-07 sa=3.45e-07 sb=1.4e-07 sca=11.3137 scb=0.00981578 scc=0.000707604 $X=15200 $Y=11470 $dt=1
M56 47 3 1 1 g45p1svt L=4.5e-08 W=2.4e-07 AD=3.84e-14 AS=3.36e-14 PD=8e-07 PS=7.6e-07 fw=2.4e-07 sa=1.4e-07 sb=3.45e-07 sca=9.4037 scb=0.0080058 scc=0.000230225 $X=17770 $Y=2230 $dt=1
M57 40 5 1 1 g45p1svt L=4.5e-08 W=2.4e-07 AD=3.84e-14 AS=3.36e-14 PD=8e-07 PS=7.6e-07 fw=2.4e-07 sa=1.4e-07 sb=3.45e-07 sca=9.4037 scb=0.0080058 scc=0.000230225 $X=17770 $Y=4410 $dt=1
M58 33 7 1 1 g45p1svt L=4.5e-08 W=2.4e-07 AD=3.84e-14 AS=3.36e-14 PD=8e-07 PS=7.6e-07 fw=2.4e-07 sa=1.4e-07 sb=3.45e-07 sca=9.4037 scb=0.0080058 scc=0.000230225 $X=17770 $Y=9550 $dt=1
M59 26 9 1 1 g45p1svt L=4.5e-08 W=2.4e-07 AD=3.84e-14 AS=3.36e-14 PD=8e-07 PS=7.6e-07 fw=2.4e-07 sa=1.4e-07 sb=3.45e-07 sca=9.4037 scb=0.0080058 scc=0.000230225 $X=17770 $Y=11730 $dt=1
M60 1 2 47 1 g45p1svt L=4.5e-08 W=2.4e-07 AD=3.36e-14 AS=3.84e-14 PD=7.6e-07 PS=8e-07 fw=2.4e-07 sa=3.45e-07 sb=1.4e-07 sca=9.4037 scb=0.0080058 scc=0.000230225 $X=18180 $Y=2230 $dt=1
M61 1 4 40 1 g45p1svt L=4.5e-08 W=2.4e-07 AD=3.36e-14 AS=3.84e-14 PD=7.6e-07 PS=8e-07 fw=2.4e-07 sa=3.45e-07 sb=1.4e-07 sca=9.4037 scb=0.0080058 scc=0.000230225 $X=18180 $Y=4410 $dt=1
M62 1 6 33 1 g45p1svt L=4.5e-08 W=2.4e-07 AD=3.36e-14 AS=3.84e-14 PD=7.6e-07 PS=8e-07 fw=2.4e-07 sa=3.45e-07 sb=1.4e-07 sca=9.4037 scb=0.0080058 scc=0.000230225 $X=18180 $Y=9550 $dt=1
M63 1 8 26 1 g45p1svt L=4.5e-08 W=2.4e-07 AD=3.36e-14 AS=3.84e-14 PD=7.6e-07 PS=8e-07 fw=2.4e-07 sa=3.45e-07 sb=1.4e-07 sca=9.4037 scb=0.0080058 scc=0.000230225 $X=18180 $Y=11730 $dt=1
M64 17 46 1 1 g45p1svt L=4.5e-08 W=2.4e-07 AD=3.84e-14 AS=3.36e-14 PD=8e-07 PS=7.6e-07 fw=2.4e-07 sa=1.4e-07 sb=3.45e-07 sca=10.287 scb=0.00843354 scc=0.000230522 $X=20610 $Y=2230 $dt=1