* +++++++++++++++++++++++++++++++++++++++++++++++++++++++++ *
* CDL Netlist:                                              *
*                                                           *
* Cell Name  : 8bit_CSA                                     *
* Netlisted  : Sun Nov  3 07:45:00 2024                     *
* Pegasus Version: 22.21-s012 Fri Mar 10 17:36:33 PST 2023  *
* +++++++++++++++++++++++++++++++++++++++++++++++++++++++++ *
*.LDD
*.DEVTMPLT 0 MN(g45n1svt) _nmos1v ndiff_conn(D) poly_conn(G) ndiff_conn(S) psubstrate(B)
*.DEVTMPLT 1 MP(g45p1svt) _pmos1v pdiff_conn(D) poly_conn(G) pdiff_conn(S) nwell_conn(B)

* +++++++++++++++++++++++++++++++++++++++++++++++++++++++++ *
* Sub cell: M3_M2_CDNS_1                                    *
* +++++++++++++++++++++++++++++++++++++++++++++++++++++++++ *
.subckt M3_M2_CDNS_1 1
** N=1 EP=1 FDC=0
.ends M3_M2_CDNS_1

* +++++++++++++++++++++++++++++++++++++++++++++++++++++++++ *
* Sub cell: M2_M1_CDNS_2                                    *
* +++++++++++++++++++++++++++++++++++++++++++++++++++++++++ *
.subckt M2_M1_CDNS_2 1
** N=1 EP=1 FDC=0
.ends M2_M1_CDNS_2

* +++++++++++++++++++++++++++++++++++++++++++++++++++++++++ *
* Sub cell: M4_M3_CDNS_3                                    *
* +++++++++++++++++++++++++++++++++++++++++++++++++++++++++ *
.subckt M4_M3_CDNS_3 1
** N=1 EP=1 FDC=0
.ends M4_M3_CDNS_3

* +++++++++++++++++++++++++++++++++++++++++++++++++++++++++ *
* Sub cell: M3_M2_CDNS_4                                    *
* +++++++++++++++++++++++++++++++++++++++++++++++++++++++++ *
.subckt M3_M2_CDNS_4 1
** N=1 EP=1 FDC=0
.ends M3_M2_CDNS_4

* +++++++++++++++++++++++++++++++++++++++++++++++++++++++++ *
* Sub cell: M2_M1_CDNS_5                                    *
* +++++++++++++++++++++++++++++++++++++++++++++++++++++++++ *
.subckt M2_M1_CDNS_5 1
** N=1 EP=1 FDC=0
.ends M2_M1_CDNS_5

* +++++++++++++++++++++++++++++++++++++++++++++++++++++++++ *
* Sub cell: M5_M4_CDNS_6                                    *
* +++++++++++++++++++++++++++++++++++++++++++++++++++++++++ *
.subckt M5_M4_CDNS_6 1
** N=1 EP=1 FDC=0
.ends M5_M4_CDNS_6

* +++++++++++++++++++++++++++++++++++++++++++++++++++++++++ *
* Sub cell: M4_M3_CDNS_7                                    *
* +++++++++++++++++++++++++++++++++++++++++++++++++++++++++ *
.subckt M4_M3_CDNS_7 1
** N=1 EP=1 FDC=0
.ends M4_M3_CDNS_7

* +++++++++++++++++++++++++++++++++++++++++++++++++++++++++ *
* Sub cell: M1_PO_CDNS_8                                    *
* +++++++++++++++++++++++++++++++++++++++++++++++++++++++++ *
.subckt M1_PO_CDNS_8 1
** N=1 EP=1 FDC=0
.ends M1_PO_CDNS_8

* +++++++++++++++++++++++++++++++++++++++++++++++++++++++++ *
* Sub cell: M2_M1_CDNS_16                                   *
* +++++++++++++++++++++++++++++++++++++++++++++++++++++++++ *
.subckt M2_M1_CDNS_16 1
** N=1 EP=1 FDC=0
.ends M2_M1_CDNS_16

* +++++++++++++++++++++++++++++++++++++++++++++++++++++++++ *
* Sub cell: nmos1v_CDNS_18                                  *
* +++++++++++++++++++++++++++++++++++++++++++++++++++++++++ *
.subckt nmos1v_CDNS_18 S_source_0 2 D_drain_1 4
*.DEVICECLIMB
** N=4 EP=4 FDC=0
.ends nmos1v_CDNS_18

* +++++++++++++++++++++++++++++++++++++++++++++++++++++++++ *
* Sub cell: pmos1v_CDNS_19                                  *
* +++++++++++++++++++++++++++++++++++++++++++++++++++++++++ *
.subckt pmos1v_CDNS_19 S_source_0 2 D_drain_1 4 B
*.DEVICECLIMB
** N=5 EP=5 FDC=0
.ends pmos1v_CDNS_19

* +++++++++++++++++++++++++++++++++++++++++++++++++++++++++ *
* Sub cell: XOR2_1X                                         *
* +++++++++++++++++++++++++++++++++++++++++++++++++++++++++ *
.subckt XOR2_1X A B vdd! gnd! OUT 6 7 8 9 10
*.DEVICECLIMB
** N=10 EP=10 FDC=10
X0 A M1_PO_CDNS_8 $T=580 2010 0 90 $X=460 $Y=1910
X1 B M1_PO_CDNS_8 $T=1490 1580 0 90 $X=1370 $Y=1480
X2 6 M1_PO_CDNS_8 $T=3880 1920 0 90 $X=3760 $Y=1820
X3 7 M1_PO_CDNS_8 $T=4800 1580 0 90 $X=4680 $Y=1480
X4 6 M2_M1_CDNS_16 $T=1040 1920 0 90 $X=910 $Y=1840
X5 7 M2_M1_CDNS_16 $T=1960 1580 0 90 $X=1830 $Y=1500
X6 8 M2_M1_CDNS_16 $T=3270 3070 0 0 $X=3190 $Y=2940
X7 9 M2_M1_CDNS_16 $T=3360 690 0 90 $X=3230 $Y=610
X8 6 M2_M1_CDNS_16 $T=3460 1920 0 90 $X=3330 $Y=1840
X9 8 M2_M1_CDNS_16 $T=3790 3050 0 0 $X=3710 $Y=2920
X10 7 M2_M1_CDNS_16 $T=4520 1580 0 90 $X=4390 $Y=1500
X11 8 M2_M1_CDNS_16 $T=4720 3050 0 0 $X=4640 $Y=2920
X12 9 M2_M1_CDNS_16 $T=5550 690 0 90 $X=5420 $Y=610
X13 8 M2_M1_CDNS_16 $T=5650 3050 0 0 $X=5570 $Y=2920
X14 gnd! A 6 gnd! nmos1v_CDNS_18 $T=650 860 0 0 $X=230 $Y=660
X15 gnd! B 7 gnd! nmos1v_CDNS_18 $T=1580 860 0 0 $X=1160 $Y=660
X16 gnd! B 9 gnd! nmos1v_CDNS_18 $T=3020 860 0 0 $X=2600 $Y=660
X17 10 6 OUT gnd! nmos1v_CDNS_18 $T=3950 860 0 0 $X=3530 $Y=660
X18 10 7 gnd! gnd! nmos1v_CDNS_18 $T=4880 860 0 0 $X=4460 $Y=660
X19 9 A OUT gnd! nmos1v_CDNS_18 $T=5810 860 0 0 $X=5390 $Y=660
X20 vdd! A 6 gnd! vdd! pmos1v_CDNS_19 $T=650 2490 0 0 $X=230 $Y=2290
X21 vdd! B 7 gnd! vdd! pmos1v_CDNS_19 $T=1580 2490 0 0 $X=1160 $Y=2290
X22 vdd! B 8 gnd! vdd! pmos1v_CDNS_19 $T=3020 2500 0 0 $X=2600 $Y=2300
X23 8 6 OUT gnd! vdd! pmos1v_CDNS_19 $T=3950 2500 0 0 $X=3530 $Y=2300
X24 8 7 OUT gnd! vdd! pmos1v_CDNS_19 $T=4880 2500 0 0 $X=4460 $Y=2300
X25 8 A vdd! gnd! vdd! pmos1v_CDNS_19 $T=5810 2500 0 0 $X=5390 $Y=2300
M0 6 A gnd! gnd! g45n1svt L=4.5e-08 W=1.2e-07 AD=1.68e-14 AS=1.68e-14 PD=5.2e-07 PS=5.2e-07 fw=1.2e-07 sa=1.4e-07 sb=1.4e-07 sca=9.20059 scb=0.00764836 scc=0.000159521 $X=650 $Y=860 $dt=0
M1 7 B gnd! gnd! g45n1svt L=4.5e-08 W=1.2e-07 AD=1.68e-14 AS=1.68e-14 PD=5.2e-07 PS=5.2e-07 fw=1.2e-07 sa=1.4e-07 sb=1.4e-07 sca=9.20059 scb=0.00764836 scc=0.000159521 $X=1580 $Y=860 $dt=0
M2 9 B gnd! gnd! g45n1svt L=4.5e-08 W=1.2e-07 AD=1.68e-14 AS=1.68e-14 PD=5.2e-07 PS=5.2e-07 fw=1.2e-07 sa=1.4e-07 sb=1.4e-07 sca=9.20059 scb=0.00764836 scc=0.000159521 $X=3020 $Y=860 $dt=0
M3 OUT 6 10 gnd! g45n1svt L=4.5e-08 W=1.2e-07 AD=1.68e-14 AS=1.68e-14 PD=5.2e-07 PS=5.2e-07 fw=1.2e-07 sa=1.4e-07 sb=1.4e-07 sca=9.20059 scb=0.00764836 scc=0.000159521 $X=3950 $Y=860 $dt=0
M4 gnd! 7 10 gnd! g45n1svt L=4.5e-08 W=1.2e-07 AD=1.68e-14 AS=1.68e-14 PD=5.2e-07 PS=5.2e-07 fw=1.2e-07 sa=1.4e-07 sb=1.4e-07 sca=9.20059 scb=0.00764836 scc=0.000159521 $X=4880 $Y=860 $dt=0
M5 OUT A 9 gnd! g45n1svt L=4.5e-08 W=1.2e-07 AD=1.68e-14 AS=1.68e-14 PD=5.2e-07 PS=5.2e-07 fw=1.2e-07 sa=1.4e-07 sb=1.4e-07 sca=9.20059 scb=0.00764836 scc=0.000159521 $X=5810 $Y=860 $dt=0
M6 8 B vdd! vdd! g45p1svt L=4.5e-08 W=2.4e-07 AD=3.36e-14 AS=3.36e-14 PD=7.6e-07 PS=7.6e-07 fw=2.4e-07 sa=1.4e-07 sb=1.4e-07 sca=10.2959 scb=0.00764059 scc=8.89329e-05 $X=3020 $Y=2500 $dt=1
M7 OUT 6 8 vdd! g45p1svt L=4.5e-08 W=2.4e-07 AD=3.36e-14 AS=3.36e-14 PD=7.6e-07 PS=7.6e-07 fw=2.4e-07 sa=1.4e-07 sb=1.4e-07 sca=10.2959 scb=0.00764059 scc=8.89329e-05 $X=3950 $Y=2500 $dt=1
M8 OUT 7 8 vdd! g45p1svt L=4.5e-08 W=2.4e-07 AD=3.36e-14 AS=3.36e-14 PD=7.6e-07 PS=7.6e-07 fw=2.4e-07 sa=1.4e-07 sb=1.4e-07 sca=10.2959 scb=0.00764059 scc=8.89329e-05 $X=4880 $Y=2500 $dt=1
M9 vdd! A 8 vdd! g45p1svt L=4.5e-08 W=2.4e-07 AD=3.36e-14 AS=3.36e-14 PD=7.6e-07 PS=7.6e-07 fw=2.4e-07 sa=1.4e-07 sb=1.4e-07 sca=10.2959 scb=0.00764059 scc=8.89329e-05 $X=5810 $Y=2500 $dt=1
.ends XOR2_1X

* +++++++++++++++++++++++++++++++++++++++++++++++++++++++++ *
* Sub cell: cellTmpl_CDNS_11                                *
* +++++++++++++++++++++++++++++++++++++++++++++++++++++++++ *
.subckt cellTmpl_CDNS_11 1 2
*.DEVICECLIMB
** N=2 EP=2 FDC=0
.ends cellTmpl_CDNS_11

* +++++++++++++++++++++++++++++++++++++++++++++++++++++++++ *
* Sub cell: NAND2_1X                                        *
* +++++++++++++++++++++++++++++++++++++++++++++++++++++++++ *
.subckt NAND2_1X in_a vdd! gnd! in_b out 6
** N=6 EP=6 FDC=4
X0 in_a M1_PO_CDNS_8 $T=520 1770 0 90 $X=400 $Y=1670
X1 in_b M1_PO_CDNS_8 $T=1200 1830 0 90 $X=1080 $Y=1730
X2 vdd! gnd! cellTmpl_CDNS_11 $T=120 150 0 0 $X=0 $Y=10
M0 6 in_a gnd! gnd! g45n1svt L=4.5e-08 W=1.2e-07 AD=7.2e-15 AS=1.68e-14 PD=3.6e-07 PS=5.2e-07 fw=1.2e-07 sa=1.4e-07 sb=2.45e-07 sca=7.31073 scb=0.00435535 scc=4.26584e-05 $X=620 $Y=720 $dt=0
M1 out in_b 6 gnd! g45n1svt L=4.5e-08 W=1.2e-07 AD=1.68e-14 AS=7.2e-15 PD=5.2e-07 PS=3.6e-07 fw=1.2e-07 sa=2.45e-07 sb=1.4e-07 sca=7.31073 scb=0.00435535 scc=4.26584e-05 $X=830 $Y=720 $dt=0
M2 out in_a vdd! vdd! g45p1svt L=4.5e-08 W=2.4e-07 AD=3.84e-14 AS=3.36e-14 PD=8e-07 PS=7.6e-07 fw=2.4e-07 sa=1.4e-07 sb=3.45e-07 sca=21.6767 scb=0.0202328 scc=0.0021948 $X=620 $Y=2080 $dt=1
M3 vdd! in_b out vdd! g45p1svt L=4.5e-08 W=2.4e-07 AD=3.36e-14 AS=3.84e-14 PD=7.6e-07 PS=8e-07 fw=2.4e-07 sa=3.45e-07 sb=1.4e-07 sca=21.6767 scb=0.0202328 scc=0.0021948 $X=1030 $Y=2080 $dt=1
.ends NAND2_1X

* +++++++++++++++++++++++++++++++++++++++++++++++++++++++++ *
* Sub cell: NAND2_2X                                        *
* +++++++++++++++++++++++++++++++++++++++++++++++++++++++++ *
.subckt NAND2_2X vdd! gnd! in_a in_b out 6
** N=6 EP=6 FDC=4
X0 in_a M1_PO_CDNS_8 $T=520 1760 0 90 $X=400 $Y=1660
X1 in_b M1_PO_CDNS_8 $T=1200 1820 0 90 $X=1080 $Y=1720
X2 vdd! gnd! cellTmpl_CDNS_11 $T=120 140 0 0 $X=0 $Y=0
M0 6 in_a gnd! gnd! g45n1svt L=4.5e-08 W=1.2e-07 AD=7.2e-15 AS=1.68e-14 PD=3.6e-07 PS=5.2e-07 fw=1.2e-07 sa=1.4e-07 sb=2.45e-07 sca=7.31073 scb=0.00435535 scc=4.26584e-05 $X=620 $Y=710 $dt=0
M1 out in_b 6 gnd! g45n1svt L=4.5e-08 W=1.2e-07 AD=1.68e-14 AS=7.2e-15 PD=5.2e-07 PS=3.6e-07 fw=1.2e-07 sa=2.45e-07 sb=1.4e-07 sca=7.31073 scb=0.00435535 scc=4.26584e-05 $X=830 $Y=710 $dt=0
M2 out in_a vdd! vdd! g45p1svt L=4.5e-08 W=4.8e-07 AD=7.68e-14 AS=6.72e-14 PD=1.28e-06 PS=1.24e-06 fw=4.8e-07 sa=1.4e-07 sb=3.45e-07 sca=15.9511 scb=0.0138709 scc=0.00113792 $X=620 $Y=2070 $dt=1
M3 vdd! in_b out vdd! g45p1svt L=4.5e-08 W=4.8e-07 AD=6.72e-14 AS=7.68e-14 PD=1.24e-06 PS=1.28e-06 fw=4.8e-07 sa=3.45e-07 sb=1.4e-07 sca=15.9511 scb=0.0138709 scc=0.00113792 $X=1030 $Y=2070 $dt=1
.ends NAND2_2X

* +++++++++++++++++++++++++++++++++++++++++++++++++++++++++ *
* Sub cell: 1_bit_Full_Adder_ver1                           *
* +++++++++++++++++++++++++++++++++++++++++++++++++++++++++ *
.subckt 1_bit_Full_Adder_ver1 A B Cin gnd! vdd! Cout S 8 9 10
+ 11 12
*.DEVICECLIMB
** N=23 EP=12 FDC=34
X0 B M3_M2_CDNS_1 $T=1170 1430 0 0 $X=1090 $Y=1180
X1 Cin M3_M2_CDNS_1 $T=8020 1830 0 90 $X=7770 $Y=1750
X2 B M3_M2_CDNS_1 $T=8650 1560 0 0 $X=8570 $Y=1310
X3 Cout M3_M2_CDNS_1 $T=12070 1330 0 0 $X=11990 $Y=1080
X4 Cin M3_M2_CDNS_1 $T=12670 2160 0 0 $X=12590 $Y=1910
X5 B M2_M1_CDNS_2 $T=1170 1430 0 0 $X=1090 $Y=1180
X6 Cin M2_M1_CDNS_2 $T=8020 1830 0 90 $X=7770 $Y=1750
X7 B M2_M1_CDNS_2 $T=8650 1560 0 0 $X=8570 $Y=1310
X8 Cout M2_M1_CDNS_2 $T=12070 1330 0 0 $X=11990 $Y=1080
X9 Cin M2_M1_CDNS_2 $T=12670 2160 0 0 $X=12590 $Y=1910
X10 A M4_M3_CDNS_3 $T=270 1810 0 0 $X=190 $Y=1560
X11 8 M4_M3_CDNS_3 $T=6460 1360 0 0 $X=6380 $Y=1110
X12 9 M4_M3_CDNS_3 $T=8070 1290 0 0 $X=7990 $Y=1040
X13 A M4_M3_CDNS_3 $T=10010 1820 0 90 $X=9760 $Y=1740
X14 9 M4_M3_CDNS_3 $T=12110 1830 0 90 $X=11860 $Y=1750
X15 8 M4_M3_CDNS_3 $T=13590 1430 0 0 $X=13510 $Y=1180
X16 A M3_M2_CDNS_4 $T=270 1810 0 0 $X=190 $Y=1560
X17 8 M3_M2_CDNS_4 $T=6460 1360 0 0 $X=6380 $Y=1110
X18 9 M3_M2_CDNS_4 $T=8070 1290 0 0 $X=7990 $Y=1040
X19 A M3_M2_CDNS_4 $T=10010 1820 0 90 $X=9760 $Y=1740
X20 9 M3_M2_CDNS_4 $T=12110 1830 0 90 $X=11860 $Y=1750
X21 8 M3_M2_CDNS_4 $T=13590 1430 0 0 $X=13510 $Y=1180
X22 A M2_M1_CDNS_5 $T=270 1810 0 0 $X=190 $Y=1560
X23 8 M2_M1_CDNS_5 $T=6460 1360 0 0 $X=6380 $Y=1110
X24 9 M2_M1_CDNS_5 $T=8070 1290 0 0 $X=7990 $Y=1040
X25 A M2_M1_CDNS_5 $T=10010 1820 0 90 $X=9760 $Y=1740
X26 9 M2_M1_CDNS_5 $T=12110 1830 0 90 $X=11860 $Y=1750
X27 8 M2_M1_CDNS_5 $T=13590 1430 0 0 $X=13510 $Y=1180
X28 B vdd! gnd! A 10 18 NAND2_1X $T=8400 -10 0 0 $X=8400 $Y=0
X29 10 vdd! gnd! 9 Cout 19 NAND2_1X $T=10400 -10 0 0 $X=10400 $Y=0
X30 vdd! gnd! 8 Cin 9 17 NAND2_2X $T=6400 0 0 0 $X=6400 $Y=0
X31 A B vdd! gnd! 8 11 12 22 15 16 XOR2_1X $T=0 0 0 0 $X=0 $Y=0
X32 Cin 8 vdd! gnd! S 13 14 23 20 21 XOR2_1X $T=12400 0 0 0 $X=12400 $Y=0
M0 13 Cin vdd! vdd! g45p1svt L=4.5e-08 W=2.4e-07 AD=3.36e-14 AS=3.36e-14 PD=7.6e-07 PS=7.6e-07 fw=2.4e-07 sa=1.4e-07 sb=1.4e-07 sca=10.327 scb=0.00769864 scc=9.24832e-05 $X=13050 $Y=2490 $dt=1
M1 14 8 vdd! vdd! g45p1svt L=4.5e-08 W=2.4e-07 AD=3.36e-14 AS=3.36e-14 PD=7.6e-07 PS=7.6e-07 fw=2.4e-07 sa=1.4e-07 sb=1.4e-07 sca=10.327 scb=0.00769864 scc=9.24832e-05 $X=13980 $Y=2490 $dt=1
.ends 1_bit_Full_Adder_ver1

* +++++++++++++++++++++++++++++++++++++++++++++++++++++++++ *
* Sub cell: INV_1X                                          *
* +++++++++++++++++++++++++++++++++++++++++++++++++++++++++ *
.subckt INV_1X out vdd! gnd! in
** N=4 EP=4 FDC=2
X0 in M1_PO_CDNS_8 $T=970 1740 0 90 $X=850 $Y=1640
X1 vdd! gnd! cellTmpl_CDNS_11 $T=130 140 0 0 $X=10 $Y=0
M0 out in gnd! gnd! g45n1svt L=4.5e-08 W=1.2e-07 AD=1.68e-14 AS=1.68e-14 PD=5.2e-07 PS=5.2e-07 fw=1.2e-07 sa=1.4e-07 sb=1.4e-07 sca=16.6908 scb=0.0179614 scc=0.00130074 $X=1090 $Y=1110 $dt=0
M1 out in vdd! vdd! g45p1svt L=4.5e-08 W=2.4e-07 AD=3.36e-14 AS=3.36e-14 PD=7.6e-07 PS=7.6e-07 fw=2.4e-07 sa=1.4e-07 sb=1.4e-07 sca=18.2452 scb=0.0177397 scc=0.00150411 $X=1090 $Y=2120 $dt=1
.ends INV_1X

* +++++++++++++++++++++++++++++++++++++++++++++++++++++++++ *
* Sub cell: AND4_1x                                         *
* +++++++++++++++++++++++++++++++++++++++++++++++++++++++++ *
.subckt AND4_1x B A vdd! gnd! C D OUT 8 9 10
+ 11 12
** N=15 EP=12 FDC=18
X0 A vdd! gnd! B 8 13 NAND2_1X $T=0 -10 0 0 $X=0 $Y=0
X1 C vdd! gnd! D 9 14 NAND2_1X $T=4000 -10 0 0 $X=4000 $Y=0
X2 10 vdd! gnd! 11 12 15 NAND2_1X $T=8000 -10 0 0 $X=8000 $Y=0
X3 11 M2_M1_CDNS_16 $T=3610 1720 0 90 $X=3480 $Y=1640
X4 11 M2_M1_CDNS_16 $T=9560 1830 0 90 $X=9430 $Y=1750
X5 11 vdd! gnd! 8 INV_1X $T=1990 0 0 0 $X=2000 $Y=0
X6 10 vdd! gnd! 9 INV_1X $T=5990 0 0 0 $X=6000 $Y=0
X7 OUT vdd! gnd! 12 INV_1X $T=9990 0 0 0 $X=10000 $Y=0
.ends AND4_1x

* +++++++++++++++++++++++++++++++++++++++++++++++++++++++++ *
* Sub cell: MUX_1X                                          *
* +++++++++++++++++++++++++++++++++++++++++++++++++++++++++ *
.subckt MUX_1X vdd! S gnd! A B Out 7 8 9 10
+ 11 12
*.DEVICECLIMB
** N=12 EP=12 FDC=11
X0 S M1_PO_CDNS_8 $T=670 1870 0 90 $X=550 $Y=1770
X1 7 M1_PO_CDNS_8 $T=1120 1850 0 90 $X=1000 $Y=1750
X2 A M1_PO_CDNS_8 $T=3920 1900 0 90 $X=3800 $Y=1800
X3 B M1_PO_CDNS_8 $T=4860 1910 0 90 $X=4740 $Y=1810
X4 8 M1_PO_CDNS_8 $T=6230 1520 0 90 $X=6110 $Y=1420
X5 9 M2_M1_CDNS_16 $T=2390 1260 0 0 $X=2310 $Y=1130
X6 10 M2_M1_CDNS_16 $T=2390 2860 0 0 $X=2310 $Y=2730
X7 9 M2_M1_CDNS_16 $T=3830 1260 0 0 $X=3750 $Y=1130
X8 10 M2_M1_CDNS_16 $T=4770 2860 0 0 $X=4690 $Y=2730
X9 gnd! S 7 gnd! nmos1v_CDNS_18 $T=750 890 0 0 $X=330 $Y=690
X10 gnd! 7 9 gnd! nmos1v_CDNS_18 $T=2140 890 0 0 $X=1720 $Y=690
X11 gnd! S 11 gnd! nmos1v_CDNS_18 $T=3070 890 0 0 $X=2650 $Y=690
X12 9 A 8 gnd! nmos1v_CDNS_18 $T=4000 890 0 0 $X=3580 $Y=690
X13 11 B 8 gnd! nmos1v_CDNS_18 $T=4930 890 0 0 $X=4510 $Y=690
X14 gnd! 8 Out gnd! nmos1v_CDNS_18 $T=6310 890 0 0 $X=5890 $Y=690
X15 vdd! S 7 gnd! vdd! pmos1v_CDNS_19 $T=750 2330 0 0 $X=330 $Y=2130
X16 vdd! 7 10 gnd! vdd! pmos1v_CDNS_19 $T=2140 2330 0 0 $X=1720 $Y=2130
X17 vdd! S 12 gnd! vdd! pmos1v_CDNS_19 $T=3070 2330 0 0 $X=2650 $Y=2130
X18 12 A 8 gnd! vdd! pmos1v_CDNS_19 $T=4000 2330 0 0 $X=3580 $Y=2130
X19 10 B 8 gnd! vdd! pmos1v_CDNS_19 $T=4930 2330 0 0 $X=4510 $Y=2130
X20 vdd! 8 Out gnd! vdd! pmos1v_CDNS_19 $T=6310 2330 0 0 $X=5890 $Y=2130
M0 7 S gnd! gnd! g45n1svt L=4.5e-08 W=1.2e-07 AD=1.68e-14 AS=1.68e-14 PD=5.2e-07 PS=5.2e-07 fw=1.2e-07 sa=1.4e-07 sb=1.4e-07 sca=9.72117 scb=0.00853087 scc=0.000206786 $X=750 $Y=890 $dt=0
M1 9 7 gnd! gnd! g45n1svt L=4.5e-08 W=1.2e-07 AD=1.68e-14 AS=1.68e-14 PD=5.2e-07 PS=5.2e-07 fw=1.2e-07 sa=1.4e-07 sb=1.4e-07 sca=9.72117 scb=0.00853087 scc=0.000206786 $X=2140 $Y=890 $dt=0
M2 11 S gnd! gnd! g45n1svt L=4.5e-08 W=1.2e-07 AD=1.68e-14 AS=1.68e-14 PD=5.2e-07 PS=5.2e-07 fw=1.2e-07 sa=1.4e-07 sb=1.4e-07 sca=9.72117 scb=0.00853087 scc=0.000206786 $X=3070 $Y=890 $dt=0
M3 8 A 9 gnd! g45n1svt L=4.5e-08 W=1.2e-07 AD=1.68e-14 AS=1.68e-14 PD=5.2e-07 PS=5.2e-07 fw=1.2e-07 sa=1.4e-07 sb=1.4e-07 sca=9.72117 scb=0.00853087 scc=0.000206786 $X=4000 $Y=890 $dt=0
M4 8 B 11 gnd! g45n1svt L=4.5e-08 W=1.2e-07 AD=1.68e-14 AS=1.68e-14 PD=5.2e-07 PS=5.2e-07 fw=1.2e-07 sa=1.4e-07 sb=1.4e-07 sca=9.72117 scb=0.00853087 scc=0.000206786 $X=4930 $Y=890 $dt=0
M5 Out 8 gnd! gnd! g45n1svt L=4.5e-08 W=1.2e-07 AD=1.68e-14 AS=1.68e-14 PD=5.2e-07 PS=5.2e-07 fw=1.2e-07 sa=1.4e-07 sb=1.4e-07 sca=9.72117 scb=0.00853087 scc=0.000206786 $X=6310 $Y=890 $dt=0
M6 7 S vdd! vdd! g45p1svt L=4.5e-08 W=2.4e-07 AD=3.36e-14 AS=3.36e-14 PD=7.6e-07 PS=7.6e-07 fw=2.4e-07 sa=1.4e-07 sb=1.4e-07 sca=11.7234 scb=0.0101098 scc=0.000278382 $X=750 $Y=2330 $dt=1
M7 10 7 vdd! vdd! g45p1svt L=4.5e-08 W=2.4e-07 AD=3.36e-14 AS=3.36e-14 PD=7.6e-07 PS=7.6e-07 fw=2.4e-07 sa=1.4e-07 sb=1.4e-07 sca=11.7234 scb=0.0101098 scc=0.000278382 $X=2140 $Y=2330 $dt=1
M8 12 S vdd! vdd! g45p1svt L=4.5e-08 W=2.4e-07 AD=3.36e-14 AS=3.36e-14 PD=7.6e-07 PS=7.6e-07 fw=2.4e-07 sa=1.4e-07 sb=1.4e-07 sca=11.7234 scb=0.0101098 scc=0.000278382 $X=3070 $Y=2330 $dt=1
M9 8 A 12 vdd! g45p1svt L=4.5e-08 W=2.4e-07 AD=3.36e-14 AS=3.36e-14 PD=7.6e-07 PS=7.6e-07 fw=2.4e-07 sa=1.4e-07 sb=1.4e-07 sca=11.7234 scb=0.0101098 scc=0.000278382 $X=4000 $Y=2330 $dt=1
M10 8 B 10 vdd! g45p1svt L=4.5e-08 W=2.4e-07 AD=3.36e-14 AS=3.36e-14 PD=7.6e-07 PS=7.6e-07 fw=2.4e-07 sa=1.4e-07 sb=1.4e-07 sca=11.7234 scb=0.0101098 scc=0.000278382 $X=4930 $Y=2330 $dt=1
.ends MUX_1X

* +++++++++++++++++++++++++++++++++++++++++++++++++++++++++ *
* Sub cell: 4bit_CSA                                        *
* +++++++++++++++++++++++++++++++++++++++++++++++++++++++++ *
.subckt 4bit_CSA A0 B0 C0 vdd! gnd! S0 A1 B1 S1 A2
+ B2 S2 A3 B3 S3 Cout 17 18 19 20
+ 21 22 23 24 25 26 27 68
*.DEVICECLIMB
** N=123 EP=28 FDC=219
X0 B0 M3_M2_CDNS_1 $T=19990 1430 0 0 $X=19910 $Y=1180
X1 B1 M3_M2_CDNS_1 $T=45190 1430 0 0 $X=45110 $Y=1180
X2 B2 M3_M2_CDNS_1 $T=70390 1430 0 0 $X=70310 $Y=1180
X3 B3 M3_M2_CDNS_1 $T=95590 1430 0 0 $X=95510 $Y=1180
X4 17 M3_M2_CDNS_1 $T=116410 1910 0 0 $X=116330 $Y=1660
X5 C0 M3_M2_CDNS_1 $T=117350 2060 0 0 $X=117270 $Y=1810
X6 B0 M2_M1_CDNS_2 $T=19990 1430 0 0 $X=19910 $Y=1180
X7 B1 M2_M1_CDNS_2 $T=45190 1430 0 0 $X=45110 $Y=1180
X8 B2 M2_M1_CDNS_2 $T=70390 1430 0 0 $X=70310 $Y=1180
X9 B3 M2_M1_CDNS_2 $T=95590 1430 0 0 $X=95510 $Y=1180
X10 17 M2_M1_CDNS_2 $T=116410 1910 0 0 $X=116330 $Y=1660
X11 C0 M2_M1_CDNS_2 $T=117350 2060 0 0 $X=117270 $Y=1810
X12 A0 M4_M3_CDNS_3 $T=18950 2010 0 90 $X=18700 $Y=1930
X13 A1 M4_M3_CDNS_3 $T=44120 2000 0 90 $X=43870 $Y=1920
X14 A2 M4_M3_CDNS_3 $T=69330 2010 0 90 $X=69080 $Y=1930
X15 A3 M4_M3_CDNS_3 $T=94500 2000 0 90 $X=94250 $Y=1920
X16 A0 M3_M2_CDNS_4 $T=18950 2010 0 90 $X=18700 $Y=1930
X17 18 M3_M2_CDNS_4 $T=24960 1870 0 0 $X=24880 $Y=1620
X18 A1 M3_M2_CDNS_4 $T=44120 2000 0 90 $X=43870 $Y=1920
X19 19 M3_M2_CDNS_4 $T=50160 1870 0 0 $X=50080 $Y=1620
X20 A2 M3_M2_CDNS_4 $T=69330 2010 0 90 $X=69080 $Y=1930
X21 20 M3_M2_CDNS_4 $T=75360 1870 0 0 $X=75280 $Y=1620
X22 A3 M3_M2_CDNS_4 $T=94500 2000 0 90 $X=94250 $Y=1920
X23 20 M3_M2_CDNS_4 $T=102430 1820 0 90 $X=102180 $Y=1740
X24 19 M3_M2_CDNS_4 $T=105050 1610 0 0 $X=104970 $Y=1360
X25 18 M3_M2_CDNS_4 $T=106450 1820 0 90 $X=106200 $Y=1740
X26 A0 M2_M1_CDNS_5 $T=18950 2010 0 90 $X=18700 $Y=1930
X27 18 M2_M1_CDNS_5 $T=24960 1870 0 0 $X=24880 $Y=1620
X28 A1 M2_M1_CDNS_5 $T=44120 2000 0 90 $X=43870 $Y=1920
X29 19 M2_M1_CDNS_5 $T=50160 1870 0 0 $X=50080 $Y=1620
X30 A2 M2_M1_CDNS_5 $T=69330 2010 0 90 $X=69080 $Y=1930
X31 20 M2_M1_CDNS_5 $T=75360 1870 0 0 $X=75280 $Y=1620
X32 A3 M2_M1_CDNS_5 $T=94500 2000 0 90 $X=94250 $Y=1920
X33 20 M2_M1_CDNS_5 $T=102430 1820 0 90 $X=102180 $Y=1740
X34 19 M2_M1_CDNS_5 $T=105050 1610 0 0 $X=104970 $Y=1360
X35 18 M2_M1_CDNS_5 $T=106450 1820 0 90 $X=106200 $Y=1740
X36 18 M5_M4_CDNS_6 $T=24960 1870 0 0 $X=24880 $Y=1620
X37 19 M5_M4_CDNS_6 $T=50160 1870 0 0 $X=50080 $Y=1620
X38 20 M5_M4_CDNS_6 $T=75360 1870 0 0 $X=75280 $Y=1620
X39 20 M5_M4_CDNS_6 $T=102430 1820 0 90 $X=102180 $Y=1740
X40 19 M5_M4_CDNS_6 $T=105050 1610 0 0 $X=104970 $Y=1360
X41 18 M5_M4_CDNS_6 $T=106450 1820 0 90 $X=106200 $Y=1740
X42 18 M4_M3_CDNS_7 $T=24960 1870 0 0 $X=24880 $Y=1620
X43 19 M4_M3_CDNS_7 $T=50160 1870 0 0 $X=50080 $Y=1620
X44 20 M4_M3_CDNS_7 $T=75360 1870 0 0 $X=75280 $Y=1620
X45 20 M4_M3_CDNS_7 $T=102430 1820 0 90 $X=102180 $Y=1740
X46 19 M4_M3_CDNS_7 $T=105050 1610 0 0 $X=104970 $Y=1360
X47 18 M4_M3_CDNS_7 $T=106450 1820 0 90 $X=106200 $Y=1740
X48 A0 B0 vdd! gnd! 18 33 34 112 76 77 XOR2_1X $T=18800 0 0 0 $X=18800 $Y=0
X49 A1 B1 vdd! gnd! 19 42 43 115 85 86 XOR2_1X $T=44000 0 0 0 $X=44000 $Y=0
X50 A2 B2 vdd! gnd! 20 51 52 118 94 95 XOR2_1X $T=69200 0 0 0 $X=69200 $Y=0
X51 A3 B3 vdd! gnd! 21 60 61 121 103 104 XOR2_1X $T=94400 0 0 0 $X=94400 $Y=0
X52 A0 B0 C0 gnd! vdd! 22 S0 28 30 29
+ 26 27 1_bit_Full_Adder_ver1 $T=0 0 0 0 $X=0 $Y=0
X53 A1 B1 22 gnd! vdd! 23 S1 37 39 38
+ 35 36 1_bit_Full_Adder_ver1 $T=25200 0 0 0 $X=25200 $Y=0
X54 A2 B2 23 gnd! vdd! 24 S2 46 48 47
+ 44 45 1_bit_Full_Adder_ver1 $T=50400 0 0 0 $X=50400 $Y=0
X55 A3 B3 24 gnd! vdd! 17 S3 55 57 56
+ 53 54 1_bit_Full_Adder_ver1 $T=75600 0 0 0 $X=75600 $Y=0
X56 20 21 vdd! gnd! 19 18 25 62 63 64
+ 65 66 AND4_1x $T=100800 0 0 0 $X=100800 $Y=0
X57 vdd! 25 gnd! 17 C0 Cout 67 68 108 122
+ 109 123 MUX_1X $T=112790 0 0 0 $X=112800 $Y=0
M0 33 A0 vdd! vdd! g45p1svt L=4.5e-08 W=2.4e-07 AD=3.36e-14 AS=3.36e-14 PD=7.6e-07 PS=7.6e-07 fw=2.4e-07 sa=1.4e-07 sb=1.4e-07 sca=10.327 scb=0.00769864 scc=9.24832e-05 $X=19450 $Y=2490 $dt=1
M1 34 B0 vdd! vdd! g45p1svt L=4.5e-08 W=2.4e-07 AD=3.36e-14 AS=3.36e-14 PD=7.6e-07 PS=7.6e-07 fw=2.4e-07 sa=1.4e-07 sb=1.4e-07 sca=10.327 scb=0.00769864 scc=9.24832e-05 $X=20380 $Y=2490 $dt=1
M2 35 A1 vdd! vdd! g45p1svt L=4.5e-08 W=2.4e-07 AD=3.36e-14 AS=3.36e-14 PD=7.6e-07 PS=7.6e-07 fw=2.4e-07 sa=1.4e-07 sb=1.4e-07 sca=10.327 scb=0.00769864 scc=9.24832e-05 $X=25850 $Y=2490 $dt=1
M3 36 B1 vdd! vdd! g45p1svt L=4.5e-08 W=2.4e-07 AD=3.36e-14 AS=3.36e-14 PD=7.6e-07 PS=7.6e-07 fw=2.4e-07 sa=1.4e-07 sb=1.4e-07 sca=10.327 scb=0.00769864 scc=9.24832e-05 $X=26780 $Y=2490 $dt=1
M4 42 A1 vdd! vdd! g45p1svt L=4.5e-08 W=2.4e-07 AD=3.36e-14 AS=3.36e-14 PD=7.6e-07 PS=7.6e-07 fw=2.4e-07 sa=1.4e-07 sb=1.4e-07 sca=10.327 scb=0.00769864 scc=9.24832e-05 $X=44650 $Y=2490 $dt=1
M5 43 B1 vdd! vdd! g45p1svt L=4.5e-08 W=2.4e-07 AD=3.36e-14 AS=3.36e-14 PD=7.6e-07 PS=7.6e-07 fw=2.4e-07 sa=1.4e-07 sb=1.4e-07 sca=10.327 scb=0.00769864 scc=9.24832e-05 $X=45580 $Y=2490 $dt=1
M6 44 A2 vdd! vdd! g45p1svt L=4.5e-08 W=2.4e-07 AD=3.36e-14 AS=3.36e-14 PD=7.6e-07 PS=7.6e-07 fw=2.4e-07 sa=1.4e-07 sb=1.4e-07 sca=10.327 scb=0.00769864 scc=9.24832e-05 $X=51050 $Y=2490 $dt=1
M7 45 B2 vdd! vdd! g45p1svt L=4.5e-08 W=2.4e-07 AD=3.36e-14 AS=3.36e-14 PD=7.6e-07 PS=7.6e-07 fw=2.4e-07 sa=1.4e-07 sb=1.4e-07 sca=10.327 scb=0.00769864 scc=9.24832e-05 $X=51980 $Y=2490 $dt=1
M8 51 A2 vdd! vdd! g45p1svt L=4.5e-08 W=2.4e-07 AD=3.36e-14 AS=3.36e-14 PD=7.6e-07 PS=7.6e-07 fw=2.4e-07 sa=1.4e-07 sb=1.4e-07 sca=10.327 scb=0.00769864 scc=9.24832e-05 $X=69850 $Y=2490 $dt=1
M9 52 B2 vdd! vdd! g45p1svt L=4.5e-08 W=2.4e-07 AD=3.36e-14 AS=3.36e-14 PD=7.6e-07 PS=7.6e-07 fw=2.4e-07 sa=1.4e-07 sb=1.4e-07 sca=10.327 scb=0.00769864 scc=9.24832e-05 $X=70780 $Y=2490 $dt=1
M10 53 A3 vdd! vdd! g45p1svt L=4.5e-08 W=2.4e-07 AD=3.36e-14 AS=3.36e-14 PD=7.6e-07 PS=7.6e-07 fw=2.4e-07 sa=1.4e-07 sb=1.4e-07 sca=10.327 scb=0.00769864 scc=9.24832e-05 $X=76250 $Y=2490 $dt=1
M11 54 B3 vdd! vdd! g45p1svt L=4.5e-08 W=2.4e-07 AD=3.36e-14 AS=3.36e-14 PD=7.6e-07 PS=7.6e-07 fw=2.4e-07 sa=1.4e-07 sb=1.4e-07 sca=10.327 scb=0.00769864 scc=9.24832e-05 $X=77180 $Y=2490 $dt=1
M12 60 A3 vdd! vdd! g45p1svt L=4.5e-08 W=2.4e-07 AD=3.36e-14 AS=3.36e-14 PD=7.6e-07 PS=7.6e-07 fw=2.4e-07 sa=1.4e-07 sb=1.4e-07 sca=10.327 scb=0.00769864 scc=9.24832e-05 $X=95050 $Y=2490 $dt=1
M13 61 B3 vdd! vdd! g45p1svt L=4.5e-08 W=2.4e-07 AD=3.36e-14 AS=3.36e-14 PD=7.6e-07 PS=7.6e-07 fw=2.4e-07 sa=1.4e-07 sb=1.4e-07 sca=10.327 scb=0.00769864 scc=9.24832e-05 $X=95980 $Y=2490 $dt=1
.ends 4bit_CSA

* +++++++++++++++++++++++++++++++++++++++++++++++++++++++++ *
* Sub cell: 8bit_CSA                                        *
* +++++++++++++++++++++++++++++++++++++++++++++++++++++++++ *
.subckt 8bit_CSA A0 A1 A2 A3 A4 A5 A6 A7 B0 B1
+ B2 B3 B4 B5 B6 B7 Cin Cout S0 S1
+ S2 S3 S4 S5 S6 S7 gnd! vdd!
** N=243 EP=28 FDC=444
X0 1 M3_M2_CDNS_1 $T=119680 1510 0 0 $X=119600 $Y=1260
X1 1 M2_M1_CDNS_2 $T=119680 1510 0 0 $X=119600 $Y=1260
X2 A0 B0 Cin vdd! gnd! S0 A1 B1 S1 A2
+ B2 S2 A3 B3 S3 1 80 73 72 70
+ 69 42 52 62 79 30 31 81 4bit_CSA $T=0 0 0 0 $X=0 $Y=0
X3 A4 B4 1 vdd! gnd! S4 A5 B5 S5 A6
+ B6 S6 A7 B7 S7 Cout 132 125 124 122
+ 121 94 104 114 131 82 83 133 4bit_CSA $T=119800 0 0 0 $X=119800 $Y=0
M0 30 A0 vdd! vdd! g45p1svt L=4.5e-08 W=2.4e-07 AD=3.36e-14 AS=3.36e-14 PD=7.6e-07 PS=7.6e-07 fw=2.4e-07 sa=1.4e-07 sb=1.4e-07 sca=17.6861 scb=0.0184591 scc=0.000433664 $X=650 $Y=2490 $dt=1
M1 31 B0 vdd! vdd! g45p1svt L=4.5e-08 W=2.4e-07 AD=3.36e-14 AS=3.36e-14 PD=7.6e-07 PS=7.6e-07 fw=2.4e-07 sa=1.4e-07 sb=1.4e-07 sca=10.886 scb=0.00790338 scc=9.25552e-05 $X=1580 $Y=2490 $dt=1
M2 1 81 vdd! vdd! g45p1svt L=4.5e-08 W=2.4e-07 AD=3.36e-14 AS=3.36e-14 PD=7.6e-07 PS=7.6e-07 fw=2.4e-07 sa=1.4e-07 sb=1.4e-07 sca=11.7234 scb=0.0101098 scc=0.000278382 $X=119100 $Y=2330 $dt=1
M3 82 A4 vdd! vdd! g45p1svt L=4.5e-08 W=2.4e-07 AD=3.36e-14 AS=3.36e-14 PD=7.6e-07 PS=7.6e-07 fw=2.4e-07 sa=1.4e-07 sb=1.4e-07 sca=10.327 scb=0.00769864 scc=9.24832e-05 $X=120450 $Y=2490 $dt=1
M4 83 B4 vdd! vdd! g45p1svt L=4.5e-08 W=2.4e-07 AD=3.36e-14 AS=3.36e-14 PD=7.6e-07 PS=7.6e-07 fw=2.4e-07 sa=1.4e-07 sb=1.4e-07 sca=10.327 scb=0.00769864 scc=9.24832e-05 $X=121380 $Y=2490 $dt=1
M5 Cout 133 vdd! vdd! g45p1svt L=4.5e-08 W=2.4e-07 AD=3.36e-14 AS=3.36e-14 PD=7.6e-07 PS=7.6e-07 fw=2.4e-07 sa=1.4e-07 sb=1.4e-07 sca=19.0824 scb=0.0208702 scc=0.000619562 $X=238900 $Y=2330 $dt=1
.ends 8bit_CSA
