* +++++++++++++++++++++++++++++++++++++++++++++++++++++++++ *
* CDL Netlist:                                              *
*                                                           *
* Cell Name  : carry_skip_adder_8bits_project               *
* Netlisted  : Tue Nov 19 20:08:22 2024                     *
* Pegasus Version: 22.21-s012 Fri Mar 10 17:36:33 PST 2023  *
* +++++++++++++++++++++++++++++++++++++++++++++++++++++++++ *
*.LDD
*.DEVTMPLT 0 MN(g45n1svt) _nmos1v ndiff_conn(D) poly_conn(G) ndiff_conn(S) psubstrate(B)
*.DEVTMPLT 1 MP(g45p1svt) _pmos1v pdiff_conn(D) poly_conn(G) pdiff_conn(S) nwell_conn(B)

* +++++++++++++++++++++++++++++++++++++++++++++++++++++++++ *
* Sub cell: M1_PO_CDNS_1                                    *
* +++++++++++++++++++++++++++++++++++++++++++++++++++++++++ *
.subckt M1_PO_CDNS_1 1
** N=1 EP=1 FDC=0
.ends M1_PO_CDNS_1

* +++++++++++++++++++++++++++++++++++++++++++++++++++++++++ *
* Sub cell: M2_M1_CDNS_2                                    *
* +++++++++++++++++++++++++++++++++++++++++++++++++++++++++ *
.subckt M2_M1_CDNS_2 1
** N=1 EP=1 FDC=0
.ends M2_M1_CDNS_2

* +++++++++++++++++++++++++++++++++++++++++++++++++++++++++ *
* Sub cell: M3_M2_CDNS_3                                    *
* +++++++++++++++++++++++++++++++++++++++++++++++++++++++++ *
.subckt M3_M2_CDNS_3 1
** N=1 EP=1 FDC=0
.ends M3_M2_CDNS_3

* +++++++++++++++++++++++++++++++++++++++++++++++++++++++++ *
* Sub cell: M2_M1_CDNS_4                                    *
* +++++++++++++++++++++++++++++++++++++++++++++++++++++++++ *
.subckt M2_M1_CDNS_4 1
** N=1 EP=1 FDC=0
.ends M2_M1_CDNS_4

* +++++++++++++++++++++++++++++++++++++++++++++++++++++++++ *
* Sub cell: M1_PO_CDNS_5                                    *
* +++++++++++++++++++++++++++++++++++++++++++++++++++++++++ *
.subckt M1_PO_CDNS_5 1
** N=1 EP=1 FDC=0
.ends M1_PO_CDNS_5

* +++++++++++++++++++++++++++++++++++++++++++++++++++++++++ *
* Sub cell: M2_M1_CDNS_6                                    *
* +++++++++++++++++++++++++++++++++++++++++++++++++++++++++ *
.subckt M2_M1_CDNS_6 1
** N=1 EP=1 FDC=0
.ends M2_M1_CDNS_6

* +++++++++++++++++++++++++++++++++++++++++++++++++++++++++ *
* Sub cell: M2_M1_CDNS_7                                    *
* +++++++++++++++++++++++++++++++++++++++++++++++++++++++++ *
.subckt M2_M1_CDNS_7 1
** N=1 EP=1 FDC=0
.ends M2_M1_CDNS_7

* +++++++++++++++++++++++++++++++++++++++++++++++++++++++++ *
* Sub cell: M1_PO_CDNS_8                                    *
* +++++++++++++++++++++++++++++++++++++++++++++++++++++++++ *
.subckt M1_PO_CDNS_8 1
** N=1 EP=1 FDC=0
.ends M1_PO_CDNS_8

* +++++++++++++++++++++++++++++++++++++++++++++++++++++++++ *
* Sub cell: M3_M2_CDNS_9                                    *
* +++++++++++++++++++++++++++++++++++++++++++++++++++++++++ *
.subckt M3_M2_CDNS_9 1
** N=1 EP=1 FDC=0
.ends M3_M2_CDNS_9

* +++++++++++++++++++++++++++++++++++++++++++++++++++++++++ *
* Sub cell: M4_M3_CDNS_10                                   *
* +++++++++++++++++++++++++++++++++++++++++++++++++++++++++ *
.subckt M4_M3_CDNS_10 1
** N=1 EP=1 FDC=0
.ends M4_M3_CDNS_10

* +++++++++++++++++++++++++++++++++++++++++++++++++++++++++ *
* Sub cell: M3_M2_CDNS_12                                   *
* +++++++++++++++++++++++++++++++++++++++++++++++++++++++++ *
.subckt M3_M2_CDNS_12 1
** N=1 EP=1 FDC=0
.ends M3_M2_CDNS_12

* +++++++++++++++++++++++++++++++++++++++++++++++++++++++++ *
* Sub cell: pmos1v_CDNS_13                                  *
* +++++++++++++++++++++++++++++++++++++++++++++++++++++++++ *
.subckt pmos1v_CDNS_13 S_source_0 2 D_drain_1 4 B
*.DEVICECLIMB
** N=5 EP=5 FDC=0
.ends pmos1v_CDNS_13

* +++++++++++++++++++++++++++++++++++++++++++++++++++++++++ *
* Sub cell: nmos1v_CDNS_14                                  *
* +++++++++++++++++++++++++++++++++++++++++++++++++++++++++ *
.subckt nmos1v_CDNS_14 S_source_0 D_drain_1 3 4
*.DEVICECLIMB
** N=4 EP=4 FDC=0
.ends nmos1v_CDNS_14

* +++++++++++++++++++++++++++++++++++++++++++++++++++++++++ *
* Sub cell: pmos1v_CDNS_16                                  *
* +++++++++++++++++++++++++++++++++++++++++++++++++++++++++ *
.subckt pmos1v_CDNS_16 S_source_0 2 D_drain_1 4 B
*.DEVICECLIMB
** N=5 EP=5 FDC=0
.ends pmos1v_CDNS_16

* +++++++++++++++++++++++++++++++++++++++++++++++++++++++++ *
* Sub cell: nmos1v_CDNS_17                                  *
* +++++++++++++++++++++++++++++++++++++++++++++++++++++++++ *
.subckt nmos1v_CDNS_17 S_source_0 D_drain_1 3
*.DEVICECLIMB
** N=3 EP=3 FDC=0
.ends nmos1v_CDNS_17

* +++++++++++++++++++++++++++++++++++++++++++++++++++++++++ *
* Sub cell: nmos1v_CDNS_18                                  *
* +++++++++++++++++++++++++++++++++++++++++++++++++++++++++ *
.subckt nmos1v_CDNS_18 D_drain_1 2 3 4
*.DEVICECLIMB
** N=4 EP=4 FDC=0
.ends nmos1v_CDNS_18

* +++++++++++++++++++++++++++++++++++++++++++++++++++++++++ *
* Sub cell: nmos1v_CDNS_19                                  *
* +++++++++++++++++++++++++++++++++++++++++++++++++++++++++ *
.subckt nmos1v_CDNS_19 S_source_0 2 3 4
*.DEVICECLIMB
** N=4 EP=4 FDC=0
.ends nmos1v_CDNS_19

* +++++++++++++++++++++++++++++++++++++++++++++++++++++++++ *
* Sub cell: pmos1v_CDNS_20                                  *
* +++++++++++++++++++++++++++++++++++++++++++++++++++++++++ *
.subckt pmos1v_CDNS_20 D_drain_1 2 3 4 B
*.DEVICECLIMB
** N=5 EP=5 FDC=0
.ends pmos1v_CDNS_20

* +++++++++++++++++++++++++++++++++++++++++++++++++++++++++ *
* Sub cell: pmos1v_CDNS_21                                  *
* +++++++++++++++++++++++++++++++++++++++++++++++++++++++++ *
.subckt pmos1v_CDNS_21 S_source_0 2 3 4 B
*.DEVICECLIMB
** N=5 EP=5 FDC=0
.ends pmos1v_CDNS_21

* +++++++++++++++++++++++++++++++++++++++++++++++++++++++++ *
* Sub cell: MUX_2to1___2X                                   *
* +++++++++++++++++++++++++++++++++++++++++++++++++++++++++ *
.subckt MUX_2to1___2X S gnd! vdd! A B out 7 8 9 10
+ 11 12
** N=12 EP=12 FDC=12
X0 7 M1_PO_CDNS_1 $T=250 -3000 0 0 $X=150 $Y=-3250
X1 7 M1_PO_CDNS_1 $T=2620 -2730 0 0 $X=2520 $Y=-2980
X2 7 M2_M1_CDNS_2 $T=250 -3000 0 0 $X=170 $Y=-3250
X3 7 M2_M1_CDNS_2 $T=2620 -2730 0 0 $X=2540 $Y=-2980
X4 7 M3_M2_CDNS_3 $T=250 -3000 0 0 $X=170 $Y=-3250
X5 7 M3_M2_CDNS_3 $T=960 -2040 0 0 $X=880 $Y=-2290
X6 7 M3_M2_CDNS_3 $T=2620 -2730 0 0 $X=2540 $Y=-2980
X7 S M2_M1_CDNS_4 $T=1300 -3500 0 0 $X=1220 $Y=-3750
X8 S M2_M1_CDNS_4 $T=2660 -4240 0 0 $X=2580 $Y=-4490
X9 S M1_PO_CDNS_5 $T=1300 -3500 0 0 $X=1200 $Y=-3750
X10 S M1_PO_CDNS_5 $T=2660 -4240 0 0 $X=2560 $Y=-4490
X11 7 M2_M1_CDNS_7 $T=960 -2040 0 0 $X=880 $Y=-2290
X12 S M1_PO_CDNS_8 $T=680 -3550 0 0 $X=580 $Y=-3670
X13 A M1_PO_CDNS_8 $T=1300 -2090 0 0 $X=1200 $Y=-2210
X14 B M1_PO_CDNS_8 $T=4040 -3180 0 0 $X=3940 $Y=-3300
X15 8 M1_PO_CDNS_8 $T=4300 -3670 0 90 $X=4180 $Y=-3770
X16 vdd! 8 out gnd! vdd! pmos1v_CDNS_13 $T=4580 -3180 0 0 $X=4160 $Y=-3380
X17 gnd! out 8 gnd! nmos1v_CDNS_14 $T=4580 -4500 0 0 $X=4160 $Y=-4700
X18 vdd! S 7 gnd! vdd! pmos1v_CDNS_16 $T=750 -2850 0 0 $X=330 $Y=-3050
X19 gnd! 7 S nmos1v_CDNS_17 $T=750 -4370 0 0 $X=330 $Y=-4570
X20 gnd! 7 9 gnd! nmos1v_CDNS_18 $T=1990 -4420 0 0 $X=1790 $Y=-4620
X21 8 B 10 gnd! nmos1v_CDNS_18 $T=3370 -4430 0 0 $X=3170 $Y=-4630
X22 8 A 9 gnd! nmos1v_CDNS_19 $T=1780 -4420 0 0 $X=1360 $Y=-4620
X23 gnd! S 10 gnd! nmos1v_CDNS_19 $T=3160 -4430 0 0 $X=2740 $Y=-4630
X24 vdd! S 11 gnd! vdd! pmos1v_CDNS_20 $T=1990 -3120 0 0 $X=1790 $Y=-3320
X25 8 B 12 gnd! vdd! pmos1v_CDNS_20 $T=3370 -3190 0 0 $X=3170 $Y=-3390
X26 8 A 11 gnd! vdd! pmos1v_CDNS_21 $T=1780 -3120 0 0 $X=1360 $Y=-3320
X27 vdd! 7 12 gnd! vdd! pmos1v_CDNS_21 $T=3160 -3190 0 0 $X=2740 $Y=-3390
M0 7 S gnd! gnd! g45n1svt L=4.5e-08 W=1.2e-07 AD=1.68e-14 AS=1.68e-14 PD=5.2e-07 PS=5.2e-07 fw=1.2e-07 sa=1.4e-07 sb=1.4e-07 sca=9.04018 scb=0.00737277 scc=0.00014625 $X=750 $Y=-4370 $dt=0
M1 9 A 8 gnd! g45n1svt L=4.5e-08 W=2.4e-07 AD=1.44e-14 AS=3.36e-14 PD=6e-07 PS=7.6e-07 fw=2.4e-07 sa=1.4e-07 sb=2.45e-07 sca=10.8836 scb=0.0102333 scc=0.000414887 $X=1780 $Y=-4420 $dt=0
M2 gnd! 7 9 gnd! g45n1svt L=4.5e-08 W=2.4e-07 AD=3.36e-14 AS=1.44e-14 PD=7.6e-07 PS=6e-07 fw=2.4e-07 sa=2.45e-07 sb=1.4e-07 sca=10.8836 scb=0.0102333 scc=0.000414887 $X=1990 $Y=-4420 $dt=0
M3 10 S gnd! gnd! g45n1svt L=4.5e-08 W=2.4e-07 AD=1.44e-14 AS=3.36e-14 PD=6e-07 PS=7.6e-07 fw=2.4e-07 sa=1.4e-07 sb=2.45e-07 sca=10.6427 scb=0.00988663 scc=0.000381704 $X=3160 $Y=-4430 $dt=0
M4 8 B 10 gnd! g45n1svt L=4.5e-08 W=2.4e-07 AD=3.36e-14 AS=1.44e-14 PD=7.6e-07 PS=6e-07 fw=2.4e-07 sa=2.45e-07 sb=1.4e-07 sca=10.6427 scb=0.00988663 scc=0.000381704 $X=3370 $Y=-4430 $dt=0
M5 out 8 gnd! gnd! g45n1svt L=4.5e-08 W=2.4e-07 AD=3.36e-14 AS=3.36e-14 PD=7.6e-07 PS=7.6e-07 fw=2.4e-07 sa=1.4e-07 sb=1.4e-07 sca=9.22651 scb=0.00772413 scc=0.000211444 $X=4580 $Y=-4500 $dt=0
M6 7 S vdd! vdd! g45p1svt L=4.5e-08 W=2.4e-07 AD=3.36e-14 AS=3.36e-14 PD=7.6e-07 PS=7.6e-07 fw=2.4e-07 sa=1.4e-07 sb=1.4e-07 sca=9.05646 scb=0.00745111 scc=0.000194153 $X=750 $Y=-2850 $dt=1
M7 11 A 8 vdd! g45p1svt L=4.5e-08 W=4.8e-07 AD=2.88e-14 AS=6.72e-14 PD=1.08e-06 PS=1.24e-06 fw=4.8e-07 sa=1.4e-07 sb=2.45e-07 sca=12.3552 scb=0.0107648 scc=0.000891478 $X=1780 $Y=-3120 $dt=1
M8 vdd! S 11 vdd! g45p1svt L=4.5e-08 W=4.8e-07 AD=6.72e-14 AS=2.88e-14 PD=1.24e-06 PS=1.08e-06 fw=4.8e-07 sa=2.45e-07 sb=1.4e-07 sca=12.3552 scb=0.0107648 scc=0.000891478 $X=1990 $Y=-3120 $dt=1
M9 12 7 vdd! vdd! g45p1svt L=4.5e-08 W=4.8e-07 AD=2.88e-14 AS=6.72e-14 PD=1.08e-06 PS=1.24e-06 fw=4.8e-07 sa=1.4e-07 sb=2.45e-07 sca=15.8127 scb=0.0131685 scc=0.00149596 $X=3160 $Y=-3190 $dt=1
M10 8 B 12 vdd! g45p1svt L=4.5e-08 W=4.8e-07 AD=6.72e-14 AS=2.88e-14 PD=1.24e-06 PS=1.08e-06 fw=4.8e-07 sa=2.45e-07 sb=1.4e-07 sca=15.8127 scb=0.0131685 scc=0.00149596 $X=3370 $Y=-3190 $dt=1
M11 out 8 vdd! vdd! g45p1svt L=4.5e-08 W=4.8e-07 AD=6.72e-14 AS=6.72e-14 PD=1.24e-06 PS=1.24e-06 fw=4.8e-07 sa=1.4e-07 sb=1.4e-07 sca=20.2373 scb=0.0194294 scc=0.00149528 $X=4580 $Y=-3180 $dt=1
.ends MUX_2to1___2X

* +++++++++++++++++++++++++++++++++++++++++++++++++++++++++ *
* Sub cell: cellTmpl_CDNS_24                                *
* +++++++++++++++++++++++++++++++++++++++++++++++++++++++++ *
.subckt cellTmpl_CDNS_24 1 2
*.DEVICECLIMB
** N=2 EP=2 FDC=0
.ends cellTmpl_CDNS_24

* +++++++++++++++++++++++++++++++++++++++++++++++++++++++++ *
* Sub cell: NAND_1X_small                                   *
* +++++++++++++++++++++++++++++++++++++++++++++++++++++++++ *
.subckt NAND_1X_small vdd! gnd! 3 4 5 6
*.DEVICECLIMB
** N=6 EP=6 FDC=2
X0 vdd! gnd! cellTmpl_CDNS_24 $T=-310 120 0 0 $X=-430 $Y=-20
M0 6 3 gnd! gnd! g45n1svt L=4.5e-08 W=2.4e-07 AD=1.44e-14 AS=3.36e-14 PD=6e-07 PS=7.6e-07 fw=2.4e-07 sa=1.4e-07 sb=2.45e-07 sca=12.2783 scb=0.012115 scc=0.000626647 $X=1000 $Y=830 $dt=0
M1 4 5 6 gnd! g45n1svt L=4.5e-08 W=2.4e-07 AD=3.36e-14 AS=1.44e-14 PD=7.6e-07 PS=6e-07 fw=2.4e-07 sa=2.45e-07 sb=1.4e-07 sca=12.2783 scb=0.012115 scc=0.000626647 $X=1210 $Y=830 $dt=0
.ends NAND_1X_small

* +++++++++++++++++++++++++++++++++++++++++++++++++++++++++ *
* Sub cell: XOR1                                            *
* +++++++++++++++++++++++++++++++++++++++++++++++++++++++++ *
.subckt XOR1 vdd! gnd! 3 4 5 6 7 8 9 10
*.DEVICECLIMB
** N=10 EP=10 FDC=8
X0 6 M2_M1_CDNS_6 $T=1210 1480 0 90 $X=1080 $Y=1400
X1 7 M2_M1_CDNS_6 $T=2250 1860 0 90 $X=2120 $Y=1780
X2 6 M2_M1_CDNS_6 $T=2950 1480 0 90 $X=2820 $Y=1400
X3 8 M2_M1_CDNS_6 $T=3370 650 0 0 $X=3290 $Y=520
X4 9 M2_M1_CDNS_6 $T=3370 3080 0 0 $X=3290 $Y=2950
X5 9 M2_M1_CDNS_6 $T=3930 3080 0 0 $X=3850 $Y=2950
X6 7 M2_M1_CDNS_6 $T=4680 1860 0 90 $X=4550 $Y=1780
X7 9 M2_M1_CDNS_6 $T=4890 3070 0 0 $X=4810 $Y=2940
X8 8 M2_M1_CDNS_6 $T=5840 640 0 0 $X=5760 $Y=510
X9 9 M2_M1_CDNS_6 $T=6260 3080 0 0 $X=6180 $Y=2950
X10 6 M1_PO_CDNS_8 $T=4020 1500 0 90 $X=3900 $Y=1400
X11 7 M1_PO_CDNS_8 $T=5020 1730 0 90 $X=4900 $Y=1630
X12 vdd! 4 9 gnd! vdd! pmos1v_CDNS_13 $T=3120 2080 0 0 $X=2700 $Y=1880
X13 9 6 5 gnd! vdd! pmos1v_CDNS_13 $T=4090 2140 0 0 $X=3670 $Y=1940
X14 9 7 5 gnd! vdd! pmos1v_CDNS_13 $T=5050 2140 0 0 $X=4630 $Y=1940
X15 vdd! 3 9 gnd! vdd! pmos1v_CDNS_13 $T=6010 2140 0 0 $X=5590 $Y=1940
X16 gnd! 8 4 gnd! nmos1v_CDNS_14 $T=3120 780 0 0 $X=2700 $Y=580
X17 10 5 6 gnd! nmos1v_CDNS_14 $T=4090 760 0 0 $X=3670 $Y=560
X18 10 gnd! 7 gnd! nmos1v_CDNS_14 $T=5050 770 0 0 $X=4630 $Y=570
X19 8 5 3 gnd! nmos1v_CDNS_14 $T=6010 770 0 0 $X=5590 $Y=570
X20 vdd! 3 6 gnd! vdd! pmos1v_CDNS_16 $T=830 2320 0 0 $X=410 $Y=2120
X21 vdd! 4 7 gnd! vdd! pmos1v_CDNS_16 $T=1790 2320 0 0 $X=1370 $Y=2120
X22 gnd! 6 3 nmos1v_CDNS_17 $T=830 840 0 0 $X=410 $Y=640
X23 gnd! 7 4 nmos1v_CDNS_17 $T=1790 840 0 0 $X=1370 $Y=640
M0 6 3 gnd! gnd! g45n1svt L=4.5e-08 W=1.2e-07 AD=1.68e-14 AS=1.68e-14 PD=5.2e-07 PS=5.2e-07 fw=1.2e-07 sa=1.4e-07 sb=1.4e-07 sca=9.20059 scb=0.00764836 scc=0.000159521 $X=830 $Y=840 $dt=0
M1 7 4 gnd! gnd! g45n1svt L=4.5e-08 W=1.2e-07 AD=1.68e-14 AS=1.68e-14 PD=5.2e-07 PS=5.2e-07 fw=1.2e-07 sa=1.4e-07 sb=1.4e-07 sca=9.20059 scb=0.00764836 scc=0.000159521 $X=1790 $Y=840 $dt=0
M2 8 4 gnd! gnd! g45n1svt L=4.5e-08 W=2.4e-07 AD=3.36e-14 AS=3.36e-14 PD=7.6e-07 PS=7.6e-07 fw=2.4e-07 sa=1.4e-07 sb=1.4e-07 sca=10.8836 scb=0.0102333 scc=0.000414887 $X=3120 $Y=780 $dt=0
M3 5 6 10 gnd! g45n1svt L=4.5e-08 W=2.4e-07 AD=3.36e-14 AS=3.36e-14 PD=7.6e-07 PS=7.6e-07 fw=2.4e-07 sa=1.4e-07 sb=1.4e-07 sca=10.4126 scb=0.0095497 scc=0.000351079 $X=4090 $Y=760 $dt=0
M4 gnd! 7 10 gnd! g45n1svt L=4.5e-08 W=2.4e-07 AD=3.36e-14 AS=3.36e-14 PD=7.6e-07 PS=7.6e-07 fw=2.4e-07 sa=1.4e-07 sb=1.4e-07 sca=10.6427 scb=0.00988663 scc=0.000381704 $X=5050 $Y=770 $dt=0
M5 5 3 8 gnd! g45n1svt L=4.5e-08 W=2.4e-07 AD=3.36e-14 AS=3.36e-14 PD=7.6e-07 PS=7.6e-07 fw=2.4e-07 sa=1.4e-07 sb=1.4e-07 sca=10.6427 scb=0.00988663 scc=0.000381704 $X=6010 $Y=770 $dt=0
M6 9 4 vdd! vdd! g45p1svt L=4.5e-08 W=4.8e-07 AD=6.72e-14 AS=6.72e-14 PD=1.24e-06 PS=1.24e-06 fw=4.8e-07 sa=1.4e-07 sb=1.4e-07 sca=12.3552 scb=0.0107648 scc=0.000891478 $X=3120 $Y=2080 $dt=1
M7 5 6 9 vdd! g45p1svt L=4.5e-08 W=4.8e-07 AD=6.72e-14 AS=6.72e-14 PD=1.24e-06 PS=1.24e-06 fw=4.8e-07 sa=1.4e-07 sb=1.4e-07 sca=10.445 scb=0.0089239 scc=0.000559159 $X=4090 $Y=2140 $dt=1
.ends XOR1

* +++++++++++++++++++++++++++++++++++++++++++++++++++++++++ *
* Sub cell: NAND_2X_small1                                  *
* +++++++++++++++++++++++++++++++++++++++++++++++++++++++++ *
.subckt NAND_2X_small1 vdd! gnd! out 4 5 6
** N=6 EP=6 FDC=4
X0 vdd! gnd! cellTmpl_CDNS_24 $T=130 160 0 0 $X=10 $Y=20
M0 6 4 gnd! gnd! g45n1svt L=4.5e-08 W=4.8e-07 AD=2.88e-14 AS=6.72e-14 PD=1.08e-06 PS=1.24e-06 fw=4.8e-07 sa=1.4e-07 sb=2.45e-07 sca=7.66878 scb=0.00580736 scc=7.77234e-05 $X=940 $Y=890 $dt=0
M1 out 5 6 gnd! g45n1svt L=4.5e-08 W=4.8e-07 AD=6.72e-14 AS=2.88e-14 PD=1.24e-06 PS=1.08e-06 fw=4.8e-07 sa=2.45e-07 sb=1.4e-07 sca=11.676 scb=0.0124835 scc=0.000479408 $X=940 $Y=1100 $dt=0
M2 out 4 vdd! vdd! g45p1svt L=4.5e-08 W=4.8e-07 AD=7.68e-14 AS=6.72e-14 PD=1.28e-06 PS=1.24e-06 fw=4.8e-07 sa=1.4e-07 sb=3.45e-07 sca=11.3137 scb=0.00981578 scc=0.000707604 $X=1190 $Y=2150 $dt=1
M3 vdd! 5 out vdd! g45p1svt L=4.5e-08 W=4.8e-07 AD=6.72e-14 AS=7.68e-14 PD=1.24e-06 PS=1.28e-06 fw=4.8e-07 sa=3.45e-07 sb=1.4e-07 sca=11.3137 scb=0.00981578 scc=0.000707604 $X=1600 $Y=2150 $dt=1
.ends NAND_2X_small1

* +++++++++++++++++++++++++++++++++++++++++++++++++++++++++ *
* Sub cell: full_adder1_small                               *
* +++++++++++++++++++++++++++++++++++++++++++++++++++++++++ *
.subckt full_adder1_small inA inB vdd! gnd! Cin_ S Cout 8 9 10
** N=23 EP=10 FDC=36
X0 inA M1_PO_CDNS_1 $T=590 2080 0 90 $X=340 $Y=1980
X1 inB M1_PO_CDNS_1 $T=2300 3150 0 90 $X=2050 $Y=3050
X2 inA M1_PO_CDNS_1 $T=17380 1890 0 0 $X=17280 $Y=1640
X3 inB M1_PO_CDNS_1 $T=19040 3010 0 0 $X=18940 $Y=2760
X4 inA M2_M1_CDNS_2 $T=590 2080 0 90 $X=340 $Y=2000
X5 inB M2_M1_CDNS_2 $T=2300 3150 0 90 $X=2050 $Y=3070
X6 inA M2_M1_CDNS_2 $T=17380 1890 0 0 $X=17300 $Y=1640
X7 inB M2_M1_CDNS_2 $T=19040 3010 0 0 $X=18960 $Y=2760
X8 inA M3_M2_CDNS_3 $T=590 2080 0 90 $X=340 $Y=2000
X9 inB M3_M2_CDNS_3 $T=2300 3150 0 90 $X=2050 $Y=3070
X10 inA M3_M2_CDNS_3 $T=17380 1890 0 0 $X=17300 $Y=1640
X11 inB M3_M2_CDNS_3 $T=19040 3010 0 0 $X=18960 $Y=2760
X12 8 M2_M1_CDNS_4 $T=8510 1970 0 0 $X=8430 $Y=1720
X13 8 M2_M1_CDNS_4 $T=16110 1570 0 0 $X=16030 $Y=1320
X14 9 M2_M1_CDNS_4 $T=20260 1840 0 0 $X=20180 $Y=1590
X15 8 M1_PO_CDNS_5 $T=8510 1970 0 0 $X=8410 $Y=1720
X16 8 M1_PO_CDNS_5 $T=16110 1570 0 0 $X=16010 $Y=1320
X17 9 M1_PO_CDNS_5 $T=20260 1840 0 0 $X=20160 $Y=1590
X18 8 M2_M1_CDNS_6 $T=6580 1900 0 0 $X=6500 $Y=1770
X19 9 M2_M1_CDNS_6 $T=15190 1730 0 90 $X=15060 $Y=1650
X20 inA M1_PO_CDNS_8 $T=690 1610 0 0 $X=590 $Y=1490
X21 inB M1_PO_CDNS_8 $T=1650 1990 0 0 $X=1550 $Y=1870
X22 Cin_ M1_PO_CDNS_8 $T=7590 1960 0 0 $X=7490 $Y=1840
X23 10 M1_PO_CDNS_8 $T=19320 1680 0 0 $X=19220 $Y=1560
X24 8 M3_M2_CDNS_9 $T=6970 950 0 0 $X=6890 $Y=820
X25 8 M3_M2_CDNS_9 $T=14100 570 0 90 $X=13970 $Y=490
X26 vdd! gnd! inA 10 inB 20 NAND_1X_small $T=16970 30 0 0 $X=16540 $Y=10
X27 vdd! gnd! 9 Cout 10 21 NAND_1X_small $T=19810 30 0 0 $X=19380 $Y=10
X28 vdd! gnd! 9 Cin_ 8 19 NAND_2X_small1 $T=13690 -10 0 0 $X=13700 $Y=10
X29 vdd! gnd! inA inB 8 11 12 15 22 16 XOR1 $T=-40 30 0 0 $X=20 $Y=10
X30 vdd! gnd! Cin_ 8 S 13 14 17 23 18 XOR1 $T=6800 30 0 0 $X=6860 $Y=10
M0 11 inA vdd! vdd! g45p1svt L=4.5e-08 W=2.4e-07 AD=3.36e-14 AS=3.36e-14 PD=7.6e-07 PS=7.6e-07 fw=2.4e-07 sa=1.4e-07 sb=1.4e-07 sca=14.672 scb=0.0152131 scc=0.000371293 $X=790 $Y=2350 $dt=1
M1 12 inB vdd! vdd! g45p1svt L=4.5e-08 W=2.4e-07 AD=3.36e-14 AS=3.36e-14 PD=7.6e-07 PS=7.6e-07 fw=2.4e-07 sa=1.4e-07 sb=1.4e-07 sca=9.90193 scb=0.0083839 scc=0.000250634 $X=1750 $Y=2350 $dt=1
M2 8 12 22 vdd! g45p1svt L=4.5e-08 W=4.8e-07 AD=6.72e-14 AS=6.72e-14 PD=1.24e-06 PS=1.24e-06 fw=4.8e-07 sa=1.4e-07 sb=1.4e-07 sca=10.445 scb=0.0089239 scc=0.000559159 $X=5010 $Y=2170 $dt=1
M3 22 inA vdd! vdd! g45p1svt L=4.5e-08 W=4.8e-07 AD=6.72e-14 AS=6.72e-14 PD=1.24e-06 PS=1.24e-06 fw=4.8e-07 sa=1.4e-07 sb=1.4e-07 sca=10.445 scb=0.0089239 scc=0.000559159 $X=5970 $Y=2170 $dt=1
M4 13 Cin_ vdd! vdd! g45p1svt L=4.5e-08 W=2.4e-07 AD=3.36e-14 AS=3.36e-14 PD=7.6e-07 PS=7.6e-07 fw=2.4e-07 sa=1.4e-07 sb=1.4e-07 sca=9.58846 scb=0.0082963 scc=0.000250617 $X=7630 $Y=2350 $dt=1
M5 14 8 vdd! vdd! g45p1svt L=4.5e-08 W=2.4e-07 AD=3.36e-14 AS=3.36e-14 PD=7.6e-07 PS=7.6e-07 fw=2.4e-07 sa=1.4e-07 sb=1.4e-07 sca=9.58846 scb=0.0082963 scc=0.000250617 $X=8590 $Y=2350 $dt=1
M6 S 14 23 vdd! g45p1svt L=4.5e-08 W=4.8e-07 AD=6.72e-14 AS=6.72e-14 PD=1.24e-06 PS=1.24e-06 fw=4.8e-07 sa=1.4e-07 sb=1.4e-07 sca=10.445 scb=0.0089239 scc=0.000559159 $X=11850 $Y=2170 $dt=1
M7 23 Cin_ vdd! vdd! g45p1svt L=4.5e-08 W=4.8e-07 AD=6.72e-14 AS=6.72e-14 PD=1.24e-06 PS=1.24e-06 fw=4.8e-07 sa=1.4e-07 sb=1.4e-07 sca=10.445 scb=0.0089239 scc=0.000559159 $X=12810 $Y=2170 $dt=1
M8 10 inA vdd! vdd! g45p1svt L=4.5e-08 W=2.4e-07 AD=3.84e-14 AS=3.36e-14 PD=8e-07 PS=7.6e-07 fw=2.4e-07 sa=1.4e-07 sb=3.45e-07 sca=9.4037 scb=0.0080058 scc=0.000230225 $X=17860 $Y=2360 $dt=1
M9 vdd! inB 10 vdd! g45p1svt L=4.5e-08 W=2.4e-07 AD=3.36e-14 AS=3.84e-14 PD=7.6e-07 PS=8e-07 fw=2.4e-07 sa=3.45e-07 sb=1.4e-07 sca=9.4037 scb=0.0080058 scc=0.000230225 $X=18270 $Y=2360 $dt=1
M10 Cout 9 vdd! vdd! g45p1svt L=4.5e-08 W=2.4e-07 AD=3.84e-14 AS=3.36e-14 PD=8e-07 PS=7.6e-07 fw=2.4e-07 sa=1.4e-07 sb=3.45e-07 sca=10.287 scb=0.00843354 scc=0.000230522 $X=20700 $Y=2360 $dt=1
M11 vdd! 10 Cout vdd! g45p1svt L=4.5e-08 W=2.4e-07 AD=3.36e-14 AS=3.84e-14 PD=7.6e-07 PS=8e-07 fw=2.4e-07 sa=3.45e-07 sb=1.4e-07 sca=11.9797 scb=0.0105745 scc=0.000243193 $X=21110 $Y=2360 $dt=1
.ends full_adder1_small

* +++++++++++++++++++++++++++++++++++++++++++++++++++++++++ *
* Sub cell: FA_4bit                                         *
* +++++++++++++++++++++++++++++++++++++++++++++++++++++++++ *
.subckt FA_4bit vdd! B0 A0 B1 A1 B2 A2 B3 A3 gnd!
+ Cin_rrr S0 S1 S2 S3 Cout3 17 18 19
** N=83 EP=19 FDC=144
X0 17 M1_PO_CDNS_1 $T=14030 6120 0 0 $X=13930 $Y=5870
X1 18 M1_PO_CDNS_1 $T=16960 11880 0 0 $X=16860 $Y=11630
X2 19 M1_PO_CDNS_1 $T=18840 8310 0 0 $X=18740 $Y=8060
X3 17 M2_M1_CDNS_2 $T=14030 6120 0 0 $X=13950 $Y=5870
X4 18 M2_M1_CDNS_2 $T=16960 11880 0 0 $X=16880 $Y=11630
X5 19 M2_M1_CDNS_2 $T=18840 8310 0 0 $X=18760 $Y=8060
X6 18 M2_M1_CDNS_2 $T=22610 11350 0 0 $X=22530 $Y=11100
X7 19 M3_M2_CDNS_3 $T=18840 8310 0 0 $X=18760 $Y=8060
X8 vdd! M2_M1_CDNS_6 $T=-80 3540 0 0 $X=-160 $Y=3410
X9 vdd! M2_M1_CDNS_6 $T=-80 10890 0 0 $X=-160 $Y=10760
X10 17 M2_M1_CDNS_6 $T=21770 2020 0 0 $X=21690 $Y=1890
X11 19 M2_M1_CDNS_6 $T=21770 5100 0 0 $X=21690 $Y=4970
X12 19 M3_M2_CDNS_9 $T=21980 9220 0 0 $X=21900 $Y=9090
X13 17 M4_M3_CDNS_10 $T=14030 6120 0 0 $X=13950 $Y=5870
X14 18 M4_M3_CDNS_10 $T=16960 11880 0 0 $X=16880 $Y=11630
X15 17 M4_M3_CDNS_10 $T=19730 4760 0 0 $X=19650 $Y=4510
X16 18 M4_M3_CDNS_10 $T=22610 11350 0 0 $X=22530 $Y=11100
X17 17 M3_M2_CDNS_12 $T=14030 6120 0 0 $X=13950 $Y=5870
X18 18 M3_M2_CDNS_12 $T=16960 11880 0 0 $X=16880 $Y=11630
X19 18 M3_M2_CDNS_12 $T=22610 11350 0 0 $X=22530 $Y=11100
X20 A0 B0 vdd! gnd! Cin_rrr S0 17 43 46 47 full_adder1_small $T=-90 -130 0 0 $X=-70 $Y=-120
X21 A1 B1 vdd! gnd! 17 S1 19 36 39 40 full_adder1_small $T=-90 7250 1 0 $X=-70 $Y=3440
X22 A2 B2 vdd! gnd! 19 S2 18 29 32 33 full_adder1_small $T=-90 7190 0 0 $X=-70 $Y=7200
X23 A3 B3 vdd! gnd! 18 S3 Cout3 22 25 26 full_adder1_small $T=-90 14570 1 0 $X=-70 $Y=10760
.ends FA_4bit

* +++++++++++++++++++++++++++++++++++++++++++++++++++++++++ *
* Sub cell: INV_1X_small                                    *
* +++++++++++++++++++++++++++++++++++++++++++++++++++++++++ *
.subckt INV_1X_small in vdd! gnd! out
** N=4 EP=4 FDC=2
X0 in M1_PO_CDNS_8 $T=950 1780 0 90 $X=830 $Y=1680
X1 vdd! in out gnd! vdd! pmos1v_CDNS_16 $T=1070 2220 0 0 $X=650 $Y=2020
X2 gnd! out in nmos1v_CDNS_17 $T=1070 980 0 0 $X=650 $Y=780
M0 out in gnd! gnd! g45n1svt L=4.5e-08 W=1.2e-07 AD=1.68e-14 AS=1.68e-14 PD=5.2e-07 PS=5.2e-07 fw=1.2e-07 sa=1.4e-07 sb=1.4e-07 sca=11.7353 scb=0.0117274 scc=0.000445561 $X=1070 $Y=980 $dt=0
M1 out in vdd! vdd! g45p1svt L=4.5e-08 W=2.4e-07 AD=3.36e-14 AS=3.36e-14 PD=7.6e-07 PS=7.6e-07 fw=2.4e-07 sa=1.4e-07 sb=1.4e-07 sca=14.8675 scb=0.0146094 scc=0.000688105 $X=1070 $Y=2220 $dt=1
.ends INV_1X_small

* +++++++++++++++++++++++++++++++++++++++++++++++++++++++++ *
* Sub cell: carry_skip_adder_8bits_project                  *
* +++++++++++++++++++++++++++++++++++++++++++++++++++++++++ *
.subckt carry_skip_adder_8bits_project A0 A1 A2 A3 A4 A5 A6 A7 B0 B1
+ B2 B3 B4 B5 B6 B7 Cin Cout S0 S1
+ S2 S3 S4 S5 S6 S7 gnd! vdd!
** N=227 EP=28 FDC=444
X0 Cin M1_PO_CDNS_1 $T=-12500 11690 0 90 $X=-12750 $Y=11590
X1 2 M1_PO_CDNS_1 $T=-12500 26330 0 90 $X=-12750 $Y=26230
X2 3 M1_PO_CDNS_1 $T=-10560 9320 0 90 $X=-10810 $Y=9220
X3 4 M1_PO_CDNS_1 $T=-10560 23960 0 90 $X=-10810 $Y=23860
X4 5 M1_PO_CDNS_1 $T=-9290 5790 0 0 $X=-9390 $Y=5540
X5 6 M1_PO_CDNS_1 $T=-9290 20430 0 0 $X=-9390 $Y=20180
X6 7 M1_PO_CDNS_1 $T=-9100 710 0 90 $X=-9350 $Y=610
X7 8 M1_PO_CDNS_1 $T=-9100 15350 0 90 $X=-9350 $Y=15250
X8 9 M1_PO_CDNS_1 $T=-8780 10580 0 0 $X=-8880 $Y=10330
X9 10 M1_PO_CDNS_1 $T=-8780 25220 0 0 $X=-8880 $Y=24970
X10 11 M1_PO_CDNS_1 $T=-8620 3320 0 90 $X=-8870 $Y=3220
X11 12 M1_PO_CDNS_1 $T=-8620 17960 0 90 $X=-8870 $Y=17860
X12 13 M1_PO_CDNS_1 $T=-8490 12310 0 0 $X=-8590 $Y=12060
X13 14 M1_PO_CDNS_1 $T=-8490 26950 0 0 $X=-8590 $Y=26700
X14 B1 M1_PO_CDNS_1 $T=-7170 5710 0 90 $X=-7420 $Y=5610
X15 B3 M1_PO_CDNS_1 $T=-7170 13030 0 90 $X=-7420 $Y=12930
X16 B5 M1_PO_CDNS_1 $T=-7170 20350 0 90 $X=-7420 $Y=20250
X17 B7 M1_PO_CDNS_1 $T=-7170 27670 0 90 $X=-7420 $Y=27570
X18 A0 M1_PO_CDNS_1 $T=-7160 2280 0 90 $X=-7410 $Y=2180
X19 B2 M1_PO_CDNS_1 $T=-7160 9580 0 90 $X=-7410 $Y=9480
X20 A4 M1_PO_CDNS_1 $T=-7160 16920 0 90 $X=-7410 $Y=16820
X21 B6 M1_PO_CDNS_1 $T=-7160 24220 0 90 $X=-7410 $Y=24120
X22 2 M1_PO_CDNS_1 $T=13720 15940 0 0 $X=13620 $Y=15690
X23 2 M2_M1_CDNS_2 $T=-13750 13670 0 0 $X=-13830 $Y=13420
X24 Cin M2_M1_CDNS_2 $T=-12500 11690 0 90 $X=-12750 $Y=11610
X25 2 M2_M1_CDNS_2 $T=-12500 26330 0 90 $X=-12750 $Y=26250
X26 3 M2_M1_CDNS_2 $T=-10560 9320 0 90 $X=-10810 $Y=9240
X27 4 M2_M1_CDNS_2 $T=-10560 23960 0 90 $X=-10810 $Y=23880
X28 5 M2_M1_CDNS_2 $T=-9290 5790 0 0 $X=-9370 $Y=5540
X29 6 M2_M1_CDNS_2 $T=-9290 20430 0 0 $X=-9370 $Y=20180
X30 7 M2_M1_CDNS_2 $T=-9100 710 0 90 $X=-9350 $Y=630
X31 8 M2_M1_CDNS_2 $T=-9100 15350 0 90 $X=-9350 $Y=15270
X32 11 M2_M1_CDNS_2 $T=-8620 3320 0 90 $X=-8870 $Y=3240
X33 12 M2_M1_CDNS_2 $T=-8620 17960 0 90 $X=-8870 $Y=17880
X34 9 M2_M1_CDNS_2 $T=-8780 10580 0 0 $X=-8860 $Y=10330
X35 10 M2_M1_CDNS_2 $T=-8780 25220 0 0 $X=-8860 $Y=24970
X36 13 M2_M1_CDNS_2 $T=-8490 12310 0 0 $X=-8570 $Y=12060
X37 14 M2_M1_CDNS_2 $T=-8490 26950 0 0 $X=-8570 $Y=26700
X38 B1 M2_M1_CDNS_2 $T=-7170 5710 0 90 $X=-7420 $Y=5630
X39 B3 M2_M1_CDNS_2 $T=-7170 13030 0 90 $X=-7420 $Y=12950
X40 B5 M2_M1_CDNS_2 $T=-7170 20350 0 90 $X=-7420 $Y=20270
X41 B7 M2_M1_CDNS_2 $T=-7170 27670 0 90 $X=-7420 $Y=27590
X42 A0 M2_M1_CDNS_2 $T=-7160 2280 0 90 $X=-7410 $Y=2200
X43 B2 M2_M1_CDNS_2 $T=-7160 9580 0 90 $X=-7410 $Y=9500
X44 A4 M2_M1_CDNS_2 $T=-7160 16920 0 90 $X=-7410 $Y=16840
X45 B6 M2_M1_CDNS_2 $T=-7160 24220 0 90 $X=-7410 $Y=24140
X46 2 M2_M1_CDNS_2 $T=13720 15940 0 0 $X=13640 $Y=15690
X47 13 M2_M1_CDNS_2 $T=21930 13970 0 0 $X=21850 $Y=13720
X48 14 M2_M1_CDNS_2 $T=21930 28610 0 0 $X=21850 $Y=28360
X49 Cin M3_M2_CDNS_3 $T=-12500 11690 0 90 $X=-12750 $Y=11610
X50 2 M3_M2_CDNS_3 $T=-12500 26330 0 90 $X=-12750 $Y=26250
X51 5 M3_M2_CDNS_3 $T=-11350 8530 0 0 $X=-11430 $Y=8280
X52 6 M3_M2_CDNS_3 $T=-11350 23170 0 0 $X=-11430 $Y=22920
X53 3 M3_M2_CDNS_3 $T=-10560 9320 0 90 $X=-10810 $Y=9240
X54 4 M3_M2_CDNS_3 $T=-10560 23960 0 90 $X=-10810 $Y=23880
X55 5 M3_M2_CDNS_3 $T=-9290 5790 0 0 $X=-9370 $Y=5540
X56 6 M3_M2_CDNS_3 $T=-9290 20430 0 0 $X=-9370 $Y=20180
X57 7 M3_M2_CDNS_3 $T=-9100 710 0 90 $X=-9350 $Y=630
X58 8 M3_M2_CDNS_3 $T=-9100 15350 0 90 $X=-9350 $Y=15270
X59 11 M3_M2_CDNS_3 $T=-8620 3320 0 90 $X=-8870 $Y=3240
X60 12 M3_M2_CDNS_3 $T=-8620 17960 0 90 $X=-8870 $Y=17880
X61 9 M3_M2_CDNS_3 $T=-8780 10580 0 0 $X=-8860 $Y=10330
X62 10 M3_M2_CDNS_3 $T=-8780 25220 0 0 $X=-8860 $Y=24970
X63 23 M3_M2_CDNS_3 $T=-8590 13730 0 0 $X=-8670 $Y=13480
X64 24 M3_M2_CDNS_3 $T=-8590 28370 0 0 $X=-8670 $Y=28120
X65 B1 M3_M2_CDNS_3 $T=-7170 5710 0 90 $X=-7420 $Y=5630
X66 B3 M3_M2_CDNS_3 $T=-7170 13030 0 90 $X=-7420 $Y=12950
X67 B5 M3_M2_CDNS_3 $T=-7170 20350 0 90 $X=-7420 $Y=20270
X68 B7 M3_M2_CDNS_3 $T=-7170 27670 0 90 $X=-7420 $Y=27590
X69 A0 M3_M2_CDNS_3 $T=-7160 2280 0 90 $X=-7410 $Y=2200
X70 B2 M3_M2_CDNS_3 $T=-7160 9580 0 90 $X=-7410 $Y=9500
X71 A4 M3_M2_CDNS_3 $T=-7160 16920 0 90 $X=-7410 $Y=16840
X72 B6 M3_M2_CDNS_3 $T=-7160 24220 0 90 $X=-7410 $Y=24140
X73 9 M3_M2_CDNS_3 $T=-1880 10750 0 90 $X=-2130 $Y=10670
X74 10 M3_M2_CDNS_3 $T=-1880 25390 0 90 $X=-2130 $Y=25310
X75 11 M3_M2_CDNS_3 $T=-1430 2970 0 0 $X=-1510 $Y=2720
X76 12 M3_M2_CDNS_3 $T=-1430 17610 0 0 $X=-1510 $Y=17360
X77 7 M3_M2_CDNS_3 $T=-1110 1270 0 0 $X=-1190 $Y=1020
X78 8 M3_M2_CDNS_3 $T=-1110 15910 0 0 $X=-1190 $Y=15660
X79 3 M3_M2_CDNS_3 $T=-1010 8930 0 0 $X=-1090 $Y=8680
X80 4 M3_M2_CDNS_3 $T=-1010 23570 0 0 $X=-1090 $Y=23320
X81 25 M2_M1_CDNS_4 $T=-11310 4490 0 90 $X=-11560 $Y=4410
X82 26 M2_M1_CDNS_4 $T=-11310 19130 0 90 $X=-11560 $Y=19050
X83 B0 M2_M1_CDNS_4 $T=-720 2840 0 0 $X=-800 $Y=2590
X84 B4 M2_M1_CDNS_4 $T=-720 17480 0 0 $X=-800 $Y=17230
X85 B0 M2_M1_CDNS_4 $T=1120 3360 0 90 $X=870 $Y=3280
X86 B4 M2_M1_CDNS_4 $T=1120 18000 0 90 $X=870 $Y=17920
X87 Cin M2_M1_CDNS_4 $T=13680 1880 0 0 $X=13600 $Y=1630
X88 25 M1_PO_CDNS_5 $T=-11310 4490 0 90 $X=-11560 $Y=4390
X89 26 M1_PO_CDNS_5 $T=-11310 19130 0 90 $X=-11560 $Y=19030
X90 B0 M1_PO_CDNS_5 $T=-720 2840 0 0 $X=-820 $Y=2590
X91 B4 M1_PO_CDNS_5 $T=-720 17480 0 0 $X=-820 $Y=17230
X92 B0 M1_PO_CDNS_5 $T=1120 3360 0 90 $X=870 $Y=3260
X93 B4 M1_PO_CDNS_5 $T=1120 18000 0 90 $X=870 $Y=17900
X94 Cin M1_PO_CDNS_5 $T=13680 1880 0 0 $X=13580 $Y=1630
X95 23 M2_M1_CDNS_6 $T=-11620 6510 0 0 $X=-11700 $Y=6380
X96 24 M2_M1_CDNS_6 $T=-11620 21150 0 0 $X=-11700 $Y=21020
X97 25 M2_M1_CDNS_6 $T=-11600 2650 0 0 $X=-11680 $Y=2520
X98 26 M2_M1_CDNS_6 $T=-11600 17290 0 0 $X=-11680 $Y=17160
X99 vdd! M2_M1_CDNS_6 $T=-1910 3890 0 0 $X=-1990 $Y=3760
X100 vdd! M2_M1_CDNS_6 $T=-1910 18530 0 0 $X=-1990 $Y=18400
X101 vdd! M2_M1_CDNS_6 $T=-1900 11220 0 0 $X=-1980 $Y=11090
X102 vdd! M2_M1_CDNS_6 $T=-1900 25860 0 0 $X=-1980 $Y=25730
X103 5 M2_M1_CDNS_7 $T=-11350 8530 0 0 $X=-11430 $Y=8280
X104 6 M2_M1_CDNS_7 $T=-11350 23170 0 0 $X=-11430 $Y=22920
X105 23 M2_M1_CDNS_7 $T=-8590 13730 0 0 $X=-8670 $Y=13480
X106 24 M2_M1_CDNS_7 $T=-8590 28370 0 0 $X=-8670 $Y=28120
X107 9 M2_M1_CDNS_7 $T=-1880 10750 0 90 $X=-2130 $Y=10670
X108 10 M2_M1_CDNS_7 $T=-1880 25390 0 90 $X=-2130 $Y=25310
X109 11 M2_M1_CDNS_7 $T=-1430 2970 0 0 $X=-1510 $Y=2720
X110 12 M2_M1_CDNS_7 $T=-1430 17610 0 0 $X=-1510 $Y=17360
X111 7 M2_M1_CDNS_7 $T=-1110 1270 0 0 $X=-1190 $Y=1020
X112 8 M2_M1_CDNS_7 $T=-1110 15910 0 0 $X=-1190 $Y=15660
X113 3 M2_M1_CDNS_7 $T=-1010 8930 0 0 $X=-1090 $Y=8680
X114 4 M2_M1_CDNS_7 $T=-1010 23570 0 0 $X=-1090 $Y=23320
X115 30 M1_PO_CDNS_8 $T=-11560 10610 0 0 $X=-11660 $Y=10490
X116 31 M1_PO_CDNS_8 $T=-11560 25250 0 0 $X=-11660 $Y=25130
X117 32 M1_PO_CDNS_8 $T=-11280 2960 0 0 $X=-11380 $Y=2840
X118 33 M1_PO_CDNS_8 $T=-11280 17600 0 0 $X=-11380 $Y=17480
X119 34 M1_PO_CDNS_8 $T=-10990 5420 0 0 $X=-11090 $Y=5300
X120 35 M1_PO_CDNS_8 $T=-10990 20060 0 0 $X=-11090 $Y=19940
X121 23 M3_M2_CDNS_9 $T=-14100 13970 0 0 $X=-14180 $Y=13840
X122 24 M3_M2_CDNS_9 $T=-14030 28610 0 0 $X=-14110 $Y=28480
X123 Cin M3_M2_CDNS_9 $T=-13220 2120 0 0 $X=-13300 $Y=1990
X124 2 M4_M3_CDNS_10 $T=-13750 13670 0 0 $X=-13830 $Y=13420
X125 13 M4_M3_CDNS_10 $T=-8490 12310 0 0 $X=-8570 $Y=12060
X126 14 M4_M3_CDNS_10 $T=-8490 26950 0 0 $X=-8570 $Y=26700
X127 2 M4_M3_CDNS_10 $T=13720 15940 0 0 $X=13640 $Y=15690
X128 13 M4_M3_CDNS_10 $T=21930 13970 0 0 $X=21850 $Y=13720
X129 14 M4_M3_CDNS_10 $T=21930 28610 0 0 $X=21850 $Y=28360
X130 2 M3_M2_CDNS_12 $T=-13750 13670 0 0 $X=-13830 $Y=13420
X131 13 M3_M2_CDNS_12 $T=-8490 12310 0 0 $X=-8570 $Y=12060