* +++++++++++++++++++++++++++++++++++++++++++++++++++++++++ *
* CDL Netlist:                                              *
*                                                           *
* Cell Name  : ph2p1_MAC                                    *
* Netlisted  : Sat Nov 23 21:11:52 2024                     *
* Pegasus Version: 22.21-s012 Fri Mar 10 17:36:33 PST 2023  *
* +++++++++++++++++++++++++++++++++++++++++++++++++++++++++ *
*.LDD
*.DEVTMPLT 0 MN(g45n1svt) _nmos1v ndiff_conn(D) poly_conn(G) ndiff_conn(S) psubstrate(B)
*.DEVTMPLT 1 MP(g45p1svt) _pmos1v pdiff_conn(D) poly_conn(G) pdiff_conn(S) nwell_conn(B)

* +++++++++++++++++++++++++++++++++++++++++++++++++++++++++ *
* Sub cell: M2_M1_CDNS_1                                    *
* +++++++++++++++++++++++++++++++++++++++++++++++++++++++++ *
.subckt M2_M1_CDNS_1 1
** N=1 EP=1 FDC=0
.ends M2_M1_CDNS_1

* +++++++++++++++++++++++++++++++++++++++++++++++++++++++++ *
* Sub cell: M3_M2_CDNS_2                                    *
* +++++++++++++++++++++++++++++++++++++++++++++++++++++++++ *
.subckt M3_M2_CDNS_2 1
** N=1 EP=1 FDC=0
.ends M3_M2_CDNS_2

* +++++++++++++++++++++++++++++++++++++++++++++++++++++++++ *
* Sub cell: M4_M3_CDNS_3                                    *
* +++++++++++++++++++++++++++++++++++++++++++++++++++++++++ *
.subckt M4_M3_CDNS_3 1
** N=1 EP=1 FDC=0
.ends M4_M3_CDNS_3

* +++++++++++++++++++++++++++++++++++++++++++++++++++++++++ *
* Sub cell: M4_M3_CDNS_4                                    *
* +++++++++++++++++++++++++++++++++++++++++++++++++++++++++ *
.subckt M4_M3_CDNS_4 1
** N=1 EP=1 FDC=0
.ends M4_M3_CDNS_4

* +++++++++++++++++++++++++++++++++++++++++++++++++++++++++ *
* Sub cell: M4_M3_CDNS_5                                    *
* +++++++++++++++++++++++++++++++++++++++++++++++++++++++++ *
.subckt M4_M3_CDNS_5 1
** N=1 EP=1 FDC=0
.ends M4_M3_CDNS_5

* +++++++++++++++++++++++++++++++++++++++++++++++++++++++++ *
* Sub cell: M3_M2_CDNS_6                                    *
* +++++++++++++++++++++++++++++++++++++++++++++++++++++++++ *
.subckt M3_M2_CDNS_6 1
** N=1 EP=1 FDC=0
.ends M3_M2_CDNS_6

* +++++++++++++++++++++++++++++++++++++++++++++++++++++++++ *
* Sub cell: M3_M2_CDNS_7                                    *
* +++++++++++++++++++++++++++++++++++++++++++++++++++++++++ *
.subckt M3_M2_CDNS_7 1
** N=1 EP=1 FDC=0
.ends M3_M2_CDNS_7

* +++++++++++++++++++++++++++++++++++++++++++++++++++++++++ *
* Sub cell: M3_M2_CDNS_8                                    *
* +++++++++++++++++++++++++++++++++++++++++++++++++++++++++ *
.subckt M3_M2_CDNS_8 1
** N=1 EP=1 FDC=0
.ends M3_M2_CDNS_8

* +++++++++++++++++++++++++++++++++++++++++++++++++++++++++ *
* Sub cell: M2_M1_CDNS_9                                    *
* +++++++++++++++++++++++++++++++++++++++++++++++++++++++++ *
.subckt M2_M1_CDNS_9 1
** N=1 EP=1 FDC=0
.ends M2_M1_CDNS_9

* +++++++++++++++++++++++++++++++++++++++++++++++++++++++++ *
* Sub cell: M5_M4_CDNS_10                                   *
* +++++++++++++++++++++++++++++++++++++++++++++++++++++++++ *
.subckt M5_M4_CDNS_10 1
** N=1 EP=1 FDC=0
.ends M5_M4_CDNS_10

* +++++++++++++++++++++++++++++++++++++++++++++++++++++++++ *
* Sub cell: M4_M3_CDNS_11                                   *
* +++++++++++++++++++++++++++++++++++++++++++++++++++++++++ *
.subckt M4_M3_CDNS_11 1
** N=1 EP=1 FDC=0
.ends M4_M3_CDNS_11

* +++++++++++++++++++++++++++++++++++++++++++++++++++++++++ *
* Sub cell: M5_M4_CDNS_12                                   *
* +++++++++++++++++++++++++++++++++++++++++++++++++++++++++ *
.subckt M5_M4_CDNS_12 1
** N=1 EP=1 FDC=0
.ends M5_M4_CDNS_12

* +++++++++++++++++++++++++++++++++++++++++++++++++++++++++ *
* Sub cell: M1_PO_CDNS_13                                   *
* +++++++++++++++++++++++++++++++++++++++++++++++++++++++++ *
.subckt M1_PO_CDNS_13 1
** N=1 EP=1 FDC=0
.ends M1_PO_CDNS_13

* +++++++++++++++++++++++++++++++++++++++++++++++++++++++++ *
* Sub cell: M1_PO_CDNS_14                                   *
* +++++++++++++++++++++++++++++++++++++++++++++++++++++++++ *
.subckt M1_PO_CDNS_14 1
** N=1 EP=1 FDC=0
.ends M1_PO_CDNS_14

* +++++++++++++++++++++++++++++++++++++++++++++++++++++++++ *
* Sub cell: M2_M1_CDNS_15                                   *
* +++++++++++++++++++++++++++++++++++++++++++++++++++++++++ *
.subckt M2_M1_CDNS_15 1
** N=1 EP=1 FDC=0
.ends M2_M1_CDNS_15

* +++++++++++++++++++++++++++++++++++++++++++++++++++++++++ *
* Sub cell: M2_M1_CDNS_16                                   *
* +++++++++++++++++++++++++++++++++++++++++++++++++++++++++ *
.subckt M2_M1_CDNS_16 1
** N=1 EP=1 FDC=0
.ends M2_M1_CDNS_16

* +++++++++++++++++++++++++++++++++++++++++++++++++++++++++ *
* Sub cell: M1_PO_CDNS_17                                   *
* +++++++++++++++++++++++++++++++++++++++++++++++++++++++++ *
.subckt M1_PO_CDNS_17 1
** N=1 EP=1 FDC=0
.ends M1_PO_CDNS_17

* +++++++++++++++++++++++++++++++++++++++++++++++++++++++++ *
* Sub cell: cellTmpl_CDNS_18                                *
* +++++++++++++++++++++++++++++++++++++++++++++++++++++++++ *
.subckt cellTmpl_CDNS_18 1 2
** N=2 EP=2 FDC=0
.ends cellTmpl_CDNS_18

* +++++++++++++++++++++++++++++++++++++++++++++++++++++++++ *
* Sub cell: INV_1X_new                                      *
* +++++++++++++++++++++++++++++++++++++++++++++++++++++++++ *
.subckt INV_1X_new 1 2 3 4
*.DEVICECLIMB
** N=4 EP=4 FDC=1
X0 3 M1_PO_CDNS_14 $T=1020 1750 0 90 $X=900 $Y=1650
X1 1 2 cellTmpl_CDNS_18 $T=50 150 0 0 $X=-70 $Y=10
M0 4 3 2 2 g45n1svt L=4.5e-08 W=1.2e-07 AD=1.68e-14 AS=1.68e-14 PD=5.2e-07 PS=5.2e-07 fw=1.2e-07 sa=1.4e-07 sb=1.4e-07 sca=10.3086 scb=0.00950139 scc=0.000267597 $X=1140 $Y=930 $dt=0
.ends INV_1X_new

* +++++++++++++++++++++++++++++++++++++++++++++++++++++++++ *
* Sub cell: nmos1v_CDNS_19                                  *
* +++++++++++++++++++++++++++++++++++++++++++++++++++++++++ *
.subckt nmos1v_CDNS_19 1 2 3 4
*.DEVICECLIMB
** N=4 EP=4 FDC=0
.ends nmos1v_CDNS_19

* +++++++++++++++++++++++++++++++++++++++++++++++++++++++++ *
* Sub cell: pmos1v_CDNS_20                                  *
* +++++++++++++++++++++++++++++++++++++++++++++++++++++++++ *
.subckt pmos1v_CDNS_20 1 2 3 4 5
*.DEVICECLIMB
** N=5 EP=5 FDC=0
.ends pmos1v_CDNS_20

* +++++++++++++++++++++++++++++++++++++++++++++++++++++++++ *
* Sub cell: cellTmpl_CDNS_21                                *
* +++++++++++++++++++++++++++++++++++++++++++++++++++++++++ *
.subckt cellTmpl_CDNS_21 1 2
** N=2 EP=2 FDC=0
.ends cellTmpl_CDNS_21

* +++++++++++++++++++++++++++++++++++++++++++++++++++++++++ *
* Sub cell: NAND2_1X_small                                  *
* +++++++++++++++++++++++++++++++++++++++++++++++++++++++++ *
.subckt NAND2_1X_small 1 2 3 4 5 6
*.DEVICECLIMB
** N=6 EP=6 FDC=2
X0 1 M1_PO_CDNS_14 $T=690 1680 0 90 $X=570 $Y=1580
X1 4 M1_PO_CDNS_14 $T=1930 1650 0 90 $X=1810 $Y=1550
X2 3 1 6 3 nmos1v_CDNS_19 $T=810 1000 0 0 $X=390 $Y=800
X3 6 4 5 3 nmos1v_CDNS_19 $T=2050 1000 0 0 $X=1630 $Y=800
X4 2 1 5 3 2 pmos1v_CDNS_20 $T=810 2440 0 0 $X=390 $Y=2240
X5 2 4 5 3 2 pmos1v_CDNS_20 $T=2050 2450 0 0 $X=1630 $Y=2250
X6 2 3 cellTmpl_CDNS_21 $T=240 210 0 0 $X=120 $Y=70
M0 6 1 3 3 g45n1svt L=4.5e-08 W=1.2e-07 AD=1.68e-14 AS=1.68e-14 PD=5.2e-07 PS=5.2e-07 fw=1.2e-07 sa=1.4e-07 sb=1.4e-07 sca=10.5213 scb=0.00984539 scc=0.000291491 $X=810 $Y=1000 $dt=0
M1 5 4 6 3 g45n1svt L=4.5e-08 W=1.2e-07 AD=1.68e-14 AS=1.68e-14 PD=5.2e-07 PS=5.2e-07 fw=1.2e-07 sa=1.4e-07 sb=1.4e-07 sca=10.5213 scb=0.00984539 scc=0.000291491 $X=2050 $Y=1000 $dt=0
.ends NAND2_1X_small

* +++++++++++++++++++++++++++++++++++++++++++++++++++++++++ *
* Sub cell: AND                                             *
* +++++++++++++++++++++++++++++++++++++++++++++++++++++++++ *
.subckt AND 1 2 3 4 5 6
*.DEVICECLIMB
** N=7 EP=6 FDC=3
X0 2 3 6 5 INV_1X_new $T=2480 -10 0 0 $X=2410 $Y=0
X1 1 2 3 4 6 7 NAND2_1X_small $T=-110 -70 0 0 $X=10 $Y=0
.ends AND

* +++++++++++++++++++++++++++++++++++++++++++++++++++++++++ *
* Sub cell: M1_PO_CDNS_22                                   *
* +++++++++++++++++++++++++++++++++++++++++++++++++++++++++ *
.subckt M1_PO_CDNS_22 1
** N=1 EP=1 FDC=0
.ends M1_PO_CDNS_22

* +++++++++++++++++++++++++++++++++++++++++++++++++++++++++ *
* Sub cell: M1_PO_CDNS_23                                   *
* +++++++++++++++++++++++++++++++++++++++++++++++++++++++++ *
.subckt M1_PO_CDNS_23 1
** N=1 EP=1 FDC=0
.ends M1_PO_CDNS_23

* +++++++++++++++++++++++++++++++++++++++++++++++++++++++++ *
* Sub cell: M3_M2_CDNS_24                                   *
* +++++++++++++++++++++++++++++++++++++++++++++++++++++++++ *
.subckt M3_M2_CDNS_24 1
** N=1 EP=1 FDC=0
.ends M3_M2_CDNS_24

* +++++++++++++++++++++++++++++++++++++++++++++++++++++++++ *
* Sub cell: M2_M1_CDNS_25                                   *
* +++++++++++++++++++++++++++++++++++++++++++++++++++++++++ *
.subckt M2_M1_CDNS_25 1
** N=1 EP=1 FDC=0
.ends M2_M1_CDNS_25

* +++++++++++++++++++++++++++++++++++++++++++++++++++++++++ *
* Sub cell: M2_M1_CDNS_26                                   *
* +++++++++++++++++++++++++++++++++++++++++++++++++++++++++ *
.subckt M2_M1_CDNS_26 1
** N=1 EP=1 FDC=0
.ends M2_M1_CDNS_26

* +++++++++++++++++++++++++++++++++++++++++++++++++++++++++ *
* Sub cell: cellTmpl_CDNS_27                                *
* +++++++++++++++++++++++++++++++++++++++++++++++++++++++++ *
.subckt cellTmpl_CDNS_27 1 2
** N=2 EP=2 FDC=0
.ends cellTmpl_CDNS_27

* +++++++++++++++++++++++++++++++++++++++++++++++++++++++++ *
* Sub cell: pmos1v_CDNS_28                                  *
* +++++++++++++++++++++++++++++++++++++++++++++++++++++++++ *
.subckt pmos1v_CDNS_28 1 2 3 4 5
*.DEVICECLIMB
** N=5 EP=5 FDC=0
.ends pmos1v_CDNS_28

* +++++++++++++++++++++++++++++++++++++++++++++++++++++++++ *
* Sub cell: nmos1v_CDNS_29                                  *
* +++++++++++++++++++++++++++++++++++++++++++++++++++++++++ *
.subckt nmos1v_CDNS_29 1 2 3 4
*.DEVICECLIMB
** N=4 EP=4 FDC=0
.ends nmos1v_CDNS_29

* +++++++++++++++++++++++++++++++++++++++++++++++++++++++++ *
* Sub cell: XOR_small                                       *
* +++++++++++++++++++++++++++++++++++++++++++++++++++++++++ *
.subckt XOR_small 1 2 3 4 5 6 7 8 9 10
*.DEVICECLIMB
** N=10 EP=10 FDC=9
X0 1 M2_M1_CDNS_1 $T=350 1340 0 90 $X=220 $Y=1260
X1 6 M2_M1_CDNS_1 $T=5510 3180 0 90 $X=5380 $Y=3100
X2 6 M2_M1_CDNS_1 $T=6740 3180 0 90 $X=6610 $Y=3100
X3 1 M1_PO_CDNS_14 $T=580 1660 0 90 $X=460 $Y=1560
X4 4 M1_PO_CDNS_14 $T=1990 1480 0 90 $X=1870 $Y=1380
X5 4 M1_PO_CDNS_22 $T=5990 1680 0 90 $X=5790 $Y=1580
X6 1 M1_PO_CDNS_22 $T=7100 1350 0 90 $X=6900 $Y=1250
X7 7 M1_PO_CDNS_23 $T=3070 1660 0 90 $X=2870 $Y=1560
X8 8 M1_PO_CDNS_23 $T=4410 1540 0 90 $X=4210 $Y=1440
X9 8 M3_M2_CDNS_24 $T=1210 1540 0 90 $X=1010 $Y=1440
X10 8 M3_M2_CDNS_24 $T=4410 1540 0 90 $X=4210 $Y=1440
X11 8 M2_M1_CDNS_25 $T=1210 1540 0 90 $X=1010 $Y=1440
X12 4 M2_M1_CDNS_25 $T=1820 1880 0 90 $X=1620 $Y=1780
X13 8 M2_M1_CDNS_25 $T=4410 1540 0 90 $X=4210 $Y=1440
X14 4 M2_M1_CDNS_26 $T=5990 1680 0 90 $X=5790 $Y=1580
X15 1 M2_M1_CDNS_26 $T=7100 1350 0 90 $X=6900 $Y=1250
X16 2 3 cellTmpl_CDNS_27 $T=120 140 0 0 $X=0 $Y=0
X17 2 1 8 3 2 pmos1v_CDNS_28 $T=700 2180 0 0 $X=280 $Y=1980
X18 2 4 7 3 2 pmos1v_CDNS_28 $T=2110 2170 0 0 $X=1690 $Y=1970
X19 2 7 6 3 2 pmos1v_CDNS_28 $T=3270 2160 0 0 $X=2850 $Y=1960
X20 2 8 6 3 2 pmos1v_CDNS_28 $T=4610 2160 0 0 $X=4190 $Y=1960
X21 6 4 5 3 2 pmos1v_CDNS_28 $T=6140 2120 0 0 $X=5720 $Y=1920
X22 6 1 5 3 2 pmos1v_CDNS_28 $T=7250 2160 0 0 $X=6830 $Y=1960
X23 3 1 8 3 nmos1v_CDNS_29 $T=700 590 0 0 $X=280 $Y=390
X24 3 4 7 3 nmos1v_CDNS_29 $T=2110 580 0 0 $X=1690 $Y=380
X25 3 7 9 3 nmos1v_CDNS_29 $T=3270 580 0 0 $X=2850 $Y=380
X26 9 8 5 3 nmos1v_CDNS_29 $T=4610 580 0 0 $X=4190 $Y=380
X27 3 4 10 3 nmos1v_CDNS_29 $T=6140 600 0 0 $X=5720 $Y=400
X28 10 1 5 3 nmos1v_CDNS_29 $T=7250 650 0 0 $X=6830 $Y=450
M0 8 1 3 3 g45n1svt L=4.5e-08 W=2.4e-07 AD=3.36e-14 AS=3.36e-14 PD=7.6e-07 PS=7.6e-07 fw=2.4e-07 sa=1.4e-07 sb=1.4e-07 sca=7.45462 scb=0.00478425 scc=6.8709e-05 $X=700 $Y=590 $dt=0
M1 7 4 3 3 g45n1svt L=4.5e-08 W=2.4e-07 AD=3.36e-14 AS=3.36e-14 PD=7.6e-07 PS=7.6e-07 fw=2.4e-07 sa=1.4e-07 sb=1.4e-07 sca=7.34996 scb=0.00460723 scc=6.29421e-05 $X=2110 $Y=580 $dt=0
M2 9 7 3 3 g45n1svt L=4.5e-08 W=2.4e-07 AD=3.36e-14 AS=3.36e-14 PD=7.6e-07 PS=7.6e-07 fw=2.4e-07 sa=1.4e-07 sb=1.4e-07 sca=7.34996 scb=0.00460723 scc=6.29421e-05 $X=3270 $Y=580 $dt=0
M3 5 8 9 3 g45n1svt L=4.5e-08 W=2.4e-07 AD=3.36e-14 AS=3.36e-14 PD=7.6e-07 PS=7.6e-07 fw=2.4e-07 sa=1.4e-07 sb=1.4e-07 sca=7.34996 scb=0.00460723 scc=6.29421e-05 $X=4610 $Y=580 $dt=0
M4 10 4 3 3 g45n1svt L=4.5e-08 W=2.4e-07 AD=3.36e-14 AS=3.36e-14 PD=7.6e-07 PS=7.6e-07 fw=2.4e-07 sa=1.4e-07 sb=1.4e-07 sca=7.56294 scb=0.00496757 scc=7.49928e-05 $X=6140 $Y=600 $dt=0
M5 5 1 10 3 g45n1svt L=4.5e-08 W=2.4e-07 AD=3.36e-14 AS=3.36e-14 PD=7.6e-07 PS=7.6e-07 fw=2.4e-07 sa=1.4e-07 sb=1.4e-07 sca=8.16621 scb=0.00598477 scc=0.000115874 $X=7250 $Y=650 $dt=0
M6 7 4 2 2 g45p1svt L=4.5e-08 W=4.8e-07 AD=6.72e-14 AS=6.72e-14 PD=1.24e-06 PS=1.24e-06 fw=4.8e-07 sa=1.4e-07 sb=1.4e-07 sca=10.1869 scb=0.0086398 scc=0.00051649 $X=2110 $Y=2170 $dt=1
M7 6 7 2 2 g45p1svt L=4.5e-08 W=4.8e-07 AD=6.72e-14 AS=6.72e-14 PD=1.24e-06 PS=1.24e-06 fw=4.8e-07 sa=1.4e-07 sb=1.4e-07 sca=10.445 scb=0.0089239 scc=0.000559159 $X=3270 $Y=2160 $dt=1
M8 6 8 2 2 g45p1svt L=4.5e-08 W=4.8e-07 AD=6.72e-14 AS=6.72e-14 PD=1.24e-06 PS=1.24e-06 fw=4.8e-07 sa=1.4e-07 sb=1.4e-07 sca=10.445 scb=0.0089239 scc=0.000559159 $X=4610 $Y=2160 $dt=1
.ends XOR_small

* +++++++++++++++++++++++++++++++++++++++++++++++++++++++++ *
* Sub cell: half_adder                                      *
* +++++++++++++++++++++++++++++++++++++++++++++++++++++++++ *
.subckt half_adder 1 2 3 4 5 6 8 9 13
*.DEVICECLIMB
** N=13 EP=9 FDC=12
X0 4 M3_M2_CDNS_8 $T=6750 2480 0 0 $X=6670 $Y=2230
X1 4 M3_M2_CDNS_8 $T=9120 2880 0 0 $X=9040 $Y=2630
X2 4 M2_M1_CDNS_16 $T=6750 2480 0 0 $X=6670 $Y=2230
X3 4 M2_M1_CDNS_16 $T=9120 2880 0 0 $X=9040 $Y=2630
X4 4 M1_PO_CDNS_17 $T=6750 2480 0 0 $X=6650 $Y=2230
X5 4 M1_PO_CDNS_17 $T=9120 2880 0 0 $X=9020 $Y=2630
X6 1 3 2 4 6 9 AND $T=7790 0 0 0 $X=7800 $Y=0
X7 1 3 2 4 5 13 7 8 10 11 XOR_small $T=0 0 0 0 $X=0 $Y=0
.ends half_adder

* +++++++++++++++++++++++++++++++++++++++++++++++++++++++++ *
* Sub cell: cellTmpl_CDNS_33                                *
* +++++++++++++++++++++++++++++++++++++++++++++++++++++++++ *
.subckt cellTmpl_CDNS_33 1 2
*.DEVICECLIMB
** N=2 EP=2 FDC=0
.ends cellTmpl_CDNS_33

* +++++++++++++++++++++++++++++++++++++++++++++++++++++++++ *
* Sub cell: NAND_1X_small                                   *
* +++++++++++++++++++++++++++++++++++++++++++++++++++++++++ *
.subckt NAND_1X_small 1 2 3 4 5 6
*.DEVICECLIMB
** N=6 EP=6 FDC=2
X0 1 2 cellTmpl_CDNS_33 $T=-310 120 0 0 $X=-430 $Y=-20
M0 6 3 2 2 g45n1svt L=4.5e-08 W=2.4e-07 AD=1.44e-14 AS=3.36e-14 PD=6e-07 PS=7.6e-07 fw=2.4e-07 sa=1.4e-07 sb=2.45e-07 sca=12.2783 scb=0.012115 scc=0.000626647 $X=1000 $Y=830 $dt=0
M1 4 5 6 2 g45n1svt L=4.5e-08 W=2.4e-07 AD=3.36e-14 AS=1.44e-14 PD=7.6e-07 PS=6e-07 fw=2.4e-07 sa=2.45e-07 sb=1.4e-07 sca=12.2783 scb=0.012115 scc=0.000626647 $X=1210 $Y=830 $dt=0
.ends NAND_1X_small

* +++++++++++++++++++++++++++++++++++++++++++++++++++++++++ *
* Sub cell: NAND_2X_small1                                  *
* +++++++++++++++++++++++++++++++++++++++++++++++++++++++++ *
.subckt NAND_2X_small1 1 2 3 4 5 6
*.DEVICECLIMB
** N=6 EP=6 FDC=2
X0 1 2 cellTmpl_CDNS_33 $T=130 160 0 0 $X=10 $Y=20
M0 6 4 2 2 g45n1svt L=4.5e-08 W=4.8e-07 AD=2.88e-14 AS=6.72e-14 PD=1.08e-06 PS=1.24e-06 fw=4.8e-07 sa=1.4e-07 sb=2.45e-07 sca=7.66878 scb=0.00580736 scc=7.77234e-05 $X=940 $Y=890 $dt=0
M1 3 5 6 2 g45n1svt L=4.5e-08 W=4.8e-07 AD=6.72e-14 AS=2.88e-14 PD=1.24e-06 PS=1.08e-06 fw=4.8e-07 sa=2.45e-07 sb=1.4e-07 sca=11.676 scb=0.0124835 scc=0.000479408 $X=940 $Y=1100 $dt=0
.ends NAND_2X_small1

* +++++++++++++++++++++++++++++++++++++++++++++++++++++++++ *
* Sub cell: cellTmpl_CDNS_39                                *
* +++++++++++++++++++++++++++++++++++++++++++++++++++++++++ *
.subckt cellTmpl_CDNS_39 1 2
** N=2 EP=2 FDC=0
.ends cellTmpl_CDNS_39

* +++++++++++++++++++++++++++++++++++++++++++++++++++++++++ *
* Sub cell: XOR1                                            *
* +++++++++++++++++++++++++++++++++++++++++++++++++++++++++ *
.subckt XOR1 1 2 3 4 5 6 7 8 9 10
*.DEVICECLIMB
** N=10 EP=10 FDC=6
X0 6 M2_M1_CDNS_1 $T=1210 1480 0 90 $X=1080 $Y=1400
X1 7 M2_M1_CDNS_1 $T=2250 1860 0 90 $X=2120 $Y=1780
X2 6 M2_M1_CDNS_1 $T=2950 1480 0 90 $X=2820 $Y=1400
X3 8 M2_M1_CDNS_1 $T=3370 650 0 0 $X=3290 $Y=520
X4 9 M2_M1_CDNS_1 $T=3370 3080 0 0 $X=3290 $Y=2950
X5 9 M2_M1_CDNS_1 $T=3930 3080 0 0 $X=3850 $Y=2950
X6 7 M2_M1_CDNS_1 $T=4680 1860 0 90 $X=4550 $Y=1780
X7 9 M2_M1_CDNS_1 $T=4890 3070 0 0 $X=4810 $Y=2940
X8 8 M2_M1_CDNS_1 $T=5840 640 0 0 $X=5760 $Y=510
X9 9 M2_M1_CDNS_1 $T=6260 3080 0 0 $X=6180 $Y=2950
X10 6 M1_PO_CDNS_14 $T=4020 1500 0 90 $X=3900 $Y=1400
X11 7 M1_PO_CDNS_14 $T=5020 1730 0 90 $X=4900 $Y=1630
X12 2 3 6 2 nmos1v_CDNS_19 $T=830 840 0 0 $X=410 $Y=640
X13 2 4 7 2 nmos1v_CDNS_19 $T=1790 840 0 0 $X=1370 $Y=640
X14 1 3 6 2 1 pmos1v_CDNS_20 $T=830 2320 0 0 $X=410 $Y=2120
X15 1 4 7 2 1 pmos1v_CDNS_20 $T=1790 2320 0 0 $X=1370 $Y=2120
X16 1 4 9 2 1 pmos1v_CDNS_28 $T=3120 2080 0 0 $X=2700 $Y=1880
X17 9 6 5 2 1 pmos1v_CDNS_28 $T=4090 2140 0 0 $X=3670 $Y=1940
X18 9 7 5 2 1 pmos1v_CDNS_28 $T=5050 2140 0 0 $X=4630 $Y=1940
X19 1 3 9 2 1 pmos1v_CDNS_28 $T=6010 2140 0 0 $X=5590 $Y=1940
X20 2 4 8 2 nmos1v_CDNS_29 $T=3120 780 0 0 $X=2700 $Y=580
X21 10 6 5 2 nmos1v_CDNS_29 $T=4090 760 0 0 $X=3670 $Y=560
X22 10 7 2 2 nmos1v_CDNS_29 $T=5050 770 0 0 $X=4630 $Y=570
X23 8 3 5 2 nmos1v_CDNS_29 $T=6010 770 0 0 $X=5590 $Y=570
X24 1 2 cellTmpl_CDNS_39 $T=180 120 0 0 $X=60 $Y=-20
M0 6 3 2 2 g45n1svt L=4.5e-08 W=1.2e-07 AD=1.68e-14 AS=1.68e-14 PD=5.2e-07 PS=5.2e-07 fw=1.2e-07 sa=1.4e-07 sb=1.4e-07 sca=9.20059 scb=0.00764836 scc=0.000159521 $X=830 $Y=840 $dt=0
M1 7 4 2 2 g45n1svt L=4.5e-08 W=1.2e-07 AD=1.68e-14 AS=1.68e-14 PD=5.2e-07 PS=5.2e-07 fw=1.2e-07 sa=1.4e-07 sb=1.4e-07 sca=9.20059 scb=0.00764836 scc=0.000159521 $X=1790 $Y=840 $dt=0
M2 8 4 2 2 g45n1svt L=4.5e-08 W=2.4e-07 AD=3.36e-14 AS=3.36e-14 PD=7.6e-07 PS=7.6e-07 fw=2.4e-07 sa=1.4e-07 sb=1.4e-07 sca=10.8836 scb=0.0102333 scc=0.000414887 $X=3120 $Y=780 $dt=0
M3 5 6 10 2 g45n1svt L=4.5e-08 W=2.4e-07 AD=3.36e-14 AS=3.36e-14 PD=7.6e-07 PS=7.6e-07 fw=2.4e-07 sa=1.4e-07 sb=1.4e-07 sca=10.4126 scb=0.0095497 scc=0.000351079 $X=4090 $Y=760 $dt=0
M4 2 7 10 2 g45n1svt L=4.5e-08 W=2.4e-07 AD=3.36e-14 AS=3.36e-14 PD=7.6e-07 PS=7.6e-07 fw=2.4e-07 sa=1.4e-07 sb=1.4e-07 sca=10.6427 scb=0.00988663 scc=0.000381704 $X=5050 $Y=770 $dt=0
M5 5 3 8 2 g45n1svt L=4.5e-08 W=2.4e-07 AD=3.36e-14 AS=3.36e-14 PD=7.6e-07 PS=7.6e-07 fw=2.4e-07 sa=1.4e-07 sb=1.4e-07 sca=10.6427 scb=0.00988663 scc=0.000381704 $X=6010 $Y=770 $dt=0
.ends XOR1

* +++++++++++++++++++++++++++++++++++++++++++++++++++++++++ *
* Sub cell: full_adder1_small                               *
* +++++++++++++++++++++++++++++++++++++++++++++++++++++++++ *
.subckt full_adder1_small 1 2 3 4 5 6 7 8 9 10
+ 11 12 13 14 22 23
*.DEVICECLIMB
** N=23 EP=16 FDC=18
X0 8 M2_M1_CDNS_1 $T=6580 1900 0 0 $X=6500 $Y=1770
X1 9 M2_M1_CDNS_1 $T=15190 1730 0 90 $X=15060 $Y=1650
X2 8 M3_M2_CDNS_2 $T=6970 950 0 0 $X=6890 $Y=820
X3 8 M3_M2_CDNS_2 $T=14100 570 0 90 $X=13970 $Y=490
X4 1 M3_M2_CDNS_8 $T=590 2080 0 90 $X=340 $Y=2000
X5 3 M3_M2_CDNS_8 $T=2300 3150 0 90 $X=2050 $Y=3070
X6 1 M3_M2_CDNS_8 $T=17380 1890 0 0 $X=17300 $Y=1640
X7 3 M3_M2_CDNS_8 $T=19040 3010 0 0 $X=18960 $Y=2760
X8 8 M1_PO_CDNS_13 $T=8510 1970 0 0 $X=8410 $Y=1720
X9 8 M1_PO_CDNS_13 $T=16110 1570 0 0 $X=16010 $Y=1320
X10 9 M1_PO_CDNS_13 $T=20260 1840 0 0 $X=20160 $Y=1590
X11 1 M1_PO_CDNS_14 $T=690 1610 0 0 $X=590 $Y=1490
X12 3 M1_PO_CDNS_14 $T=1650 1990 0 0 $X=1550 $Y=1870
X13 5 M1_PO_CDNS_14 $T=7590 1960 0 0 $X=7490 $Y=1840
X14 10 M1_PO_CDNS_14 $T=19320 1680 0 0 $X=19220 $Y=1560
X15 8 M2_M1_CDNS_15 $T=8510 1970 0 0 $X=8430 $Y=1720
X16 8 M2_M1_CDNS_15 $T=16110 1570 0 0 $X=16030 $Y=1320
X17 9 M2_M1_CDNS_15 $T=20260 1840 0 0 $X=20180 $Y=1590
X18 1 M2_M1_CDNS_16 $T=590 2080 0 90 $X=340 $Y=2000
X19 3 M2_M1_CDNS_16 $T=2300 3150 0 90 $X=2050 $Y=3070
X20 1 M2_M1_CDNS_16 $T=17380 1890 0 0 $X=17300 $Y=1640
X21 3 M2_M1_CDNS_16 $T=19040 3010 0 0 $X=18960 $Y=2760
X22 1 M1_PO_CDNS_17 $T=590 2080 0 90 $X=340 $Y=1980
X23 3 M1_PO_CDNS_17 $T=2300 3150 0 90 $X=2050 $Y=3050
X24 1 M1_PO_CDNS_17 $T=17380 1890 0 0 $X=17280 $Y=1640
X25 3 M1_PO_CDNS_17 $T=19040 3010 0 0 $X=18940 $Y=2760
X26 2 4 1 10 3 20 NAND_1X_small $T=16970 30 0 0 $X=16540 $Y=10
X27 2 4 9 7 10 21 NAND_1X_small $T=19810 30 0 0 $X=19380 $Y=10
X28 2 4 9 5 8 19 NAND_2X_small1 $T=13690 -10 0 0 $X=13700 $Y=10
X29 2 4 1 3 8 11 12 15 22 16 XOR1 $T=-40 30 0 0 $X=20 $Y=10
X30 2 4 5 8 6 13 14 17 23 18 XOR1 $T=6800 30 0 0 $X=6860 $Y=10
.ends full_adder1_small

* +++++++++++++++++++++++++++++++++++++++++++++++++++++++++ *
* Sub cell: multiplier                                      *
* +++++++++++++++++++++++++++++++++++++++++++++++++++++++++ *
.subckt multiplier 1 2 3 4 5 6 7 8 9 10
+ 11 12 13 14 15 16 17 18 19 20
+ 21 22 23 24 25 26 27 28 29 30
+ 31 32 33 34 35 36 37 38 39 40
+ 41 42 43 44 45 46 47 48 49 50
** N=238 EP=50 FDC=456
X0 2 M2_M1_CDNS_1 $T=170 4730 0 0 $X=90 $Y=4600
X1 2 M2_M1_CDNS_1 $T=180 890 0 0 $X=100 $Y=760
X2 19 M2_M1_CDNS_1 $T=4340 11800 0 0 $X=4260 $Y=11670
X3 20 M2_M1_CDNS_1 $T=8880 12210 0 0 $X=8800 $Y=12080
X4 21 M2_M1_CDNS_1 $T=13420 4530 0 0 $X=13340 $Y=4400
X5 22 M2_M1_CDNS_1 $T=17560 15460 0 0 $X=17480 $Y=15330
X6 23 M2_M1_CDNS_1 $T=21930 4780 0 0 $X=21850 $Y=4650
X7 24 M2_M1_CDNS_1 $T=29730 11900 0 0 $X=29650 $Y=11770
X8 25 M2_M1_CDNS_1 $T=31310 15530 0 0 $X=31230 $Y=15400
X9 26 M2_M1_CDNS_1 $T=35410 9580 0 0 $X=35330 $Y=9450
X10 27 M2_M1_CDNS_1 $T=41980 11840 0 0 $X=41900 $Y=11710
X11 28 M2_M1_CDNS_1 $T=43890 4790 0 0 $X=43810 $Y=4660
X12 29 M3_M2_CDNS_2 $T=4340 13390 0 0 $X=4260 $Y=13260
X13 30 M3_M2_CDNS_2 $T=7370 12440 0 0 $X=7290 $Y=12310
X14 30 M3_M2_CDNS_2 $T=8600 9080 0 0 $X=8520 $Y=8950
X15 8 M3_M2_CDNS_2 $T=10370 18740 0 0 $X=10290 $Y=18610
X16 31 M3_M2_CDNS_2 $T=13190 12020 0 0 $X=13110 $Y=11890
X17 23 M3_M2_CDNS_2 $T=19690 2880 0 90 $X=19560 $Y=2800
X18 32 M3_M2_CDNS_2 $T=26840 17540 0 90 $X=26710 $Y=17460
X19 33 M3_M2_CDNS_2 $T=35760 21100 0 0 $X=35680 $Y=20970
X20 1 M4_M3_CDNS_3 $T=1390 19500 0 0 $X=1310 $Y=19250
X21 29 M4_M3_CDNS_3 $T=3370 8280 0 0 $X=3290 $Y=8030
X22 7 M4_M3_CDNS_3 $T=4510 16920 0 0 $X=4430 $Y=16670
X23 19 M4_M3_CDNS_3 $T=5400 9800 0 0 $X=5320 $Y=9550
X24 7 M4_M3_CDNS_3 $T=7950 19550 0 0 $X=7870 $Y=19300
X25 34 M4_M3_CDNS_3 $T=8750 8160 0 0 $X=8670 $Y=7910
X26 35 M4_M3_CDNS_3 $T=10750 19470 0 0 $X=10670 $Y=19220
X27 36 M4_M3_CDNS_3 $T=11680 11800 0 0 $X=11600 $Y=11550
X28 31 M4_M3_CDNS_3 $T=12950 9830 0 0 $X=12870 $Y=9580
X29 11 M4_M3_CDNS_3 $T=13290 16990 0 0 $X=13210 $Y=16740
X30 21 M4_M3_CDNS_3 $T=14070 2580 0 90 $X=13820 $Y=2500
X31 20 M4_M3_CDNS_3 $T=15700 9710 0 0 $X=15620 $Y=9460
X32 36 M4_M3_CDNS_3 $T=22150 6400 0 0 $X=22070 $Y=6150
X33 20 M4_M3_CDNS_3 $T=24490 750 0 0 $X=24410 $Y=500
X34 11 M4_M3_CDNS_3 $T=25590 19380 0 0 $X=25510 $Y=19130
X35 32 M4_M3_CDNS_3 $T=25970 20660 0 0 $X=25890 $Y=20410
X36 37 M4_M3_CDNS_3 $T=26370 19410 0 0 $X=26290 $Y=19160
X37 38 M4_M3_CDNS_3 $T=26600 23000 0 0 $X=26520 $Y=22750
X38 24 M4_M3_CDNS_3 $T=28540 8430 0 0 $X=28460 $Y=8180
X39 24 M4_M3_CDNS_3 $T=28700 9810 0 0 $X=28620 $Y=9560
X40 39 M4_M3_CDNS_3 $T=29280 19170 0 0 $X=29200 $Y=18920
X41 28 M4_M3_CDNS_3 $T=35970 2380 0 0 $X=35890 $Y=2130
X42 40 M4_M3_CDNS_3 $T=38260 18710 0 0 $X=38180 $Y=18460
X43 39 M4_M3_CDNS_3 $T=39640 17490 0 0 $X=39560 $Y=17240
X44 28 M4_M3_CDNS_3 $T=42090 2930 0 90 $X=41840 $Y=2850
X45 41 M4_M3_CDNS_3 $T=43850 8260 0 0 $X=43770 $Y=8010
X46 42 M4_M3_CDNS_3 $T=43880 660 0 0 $X=43800 $Y=410
X47 40 M4_M3_CDNS_3 $T=46340 18970 0 0 $X=46260 $Y=18720
X48 38 M4_M3_CDNS_4 $T=34850 16990 0 0 $X=34770 $Y=16740
X49 1 M4_M3_CDNS_5 $T=1390 21140 0 0 $X=1310 $Y=21010
X50 29 M4_M3_CDNS_5 $T=3650 6110 0 0 $X=3570 $Y=5980
X51 19 M4_M3_CDNS_5 $T=6680 2460 0 0 $X=6600 $Y=2330
X52 32 M4_M3_CDNS_5 $T=13170 22790 0 0 $X=13090 $Y=22660
X53 31 M4_M3_CDNS_5 $T=13680 4950 0 0 $X=13600 $Y=4820
X54 11 M4_M3_CDNS_5 $T=14530 13310 0 0 $X=14450 $Y=13180
X55 11 M4_M3_CDNS_5 $T=14530 15600 0 0 $X=14450 $Y=15470
X56 21 M4_M3_CDNS_5 $T=21870 1570 0 0 $X=21790 $Y=1440
X57 34 M4_M3_CDNS_5 $T=23120 3950 0 0 $X=23040 $Y=3820
X58 37 M4_M3_CDNS_5 $T=28320 12210 0 0 $X=28240 $Y=12080
X59 42 M4_M3_CDNS_5 $T=28540 230 0 90 $X=28410 $Y=150
X60 41 M4_M3_CDNS_5 $T=28550 7610 0 90 $X=28420 $Y=7530
X61 35 M4_M3_CDNS_5 $T=33860 19960 0 90 $X=33730 $Y=19880
X62 1 M3_M2_CDNS_6 $T=1390 21140 0 0 $X=1310 $Y=20890
X63 7 M3_M2_CDNS_6 $T=4510 16920 0 0 $X=4430 $Y=16670
X64 34 M3_M2_CDNS_6 $T=8750 8160 0 0 $X=8670 $Y=7910
X65 35 M3_M2_CDNS_6 $T=10750 19470 0 0 $X=10670 $Y=19220
X66 36 M3_M2_CDNS_6 $T=11680 11800 0 0 $X=11600 $Y=11550
X67 32 M3_M2_CDNS_6 $T=13170 22790 0 0 $X=13090 $Y=22540
X68 11 M3_M2_CDNS_6 $T=13290 16990 0 0 $X=13210 $Y=16740
X69 11 M3_M2_CDNS_6 $T=14530 13310 0 0 $X=14450 $Y=13060
X70 11 M3_M2_CDNS_6 $T=14530 15600 0 0 $X=14450 $Y=15350
X71 36 M3_M2_CDNS_6 $T=22150 6400 0 0 $X=22070 $Y=6150
X72 20 M3_M2_CDNS_6 $T=24490 750 0 0 $X=24410 $Y=500
X73 37 M3_M2_CDNS_6 $T=26370 19410 0 0 $X=26290 $Y=19160
X74 38 M3_M2_CDNS_6 $T=26600 23000 0 0 $X=26520 $Y=22750
X75 43 M3_M2_CDNS_6 $T=28820 19250 0 0 $X=28740 $Y=19000
X76 39 M3_M2_CDNS_6 $T=29280 19170 0 0 $X=29200 $Y=18920
X77 35 M3_M2_CDNS_6 $T=33860 19960 0 90 $X=33610 $Y=19880
X78 43 M3_M2_CDNS_6 $T=34220 19150 0 0 $X=34140 $Y=18900
X79 28 M3_M2_CDNS_6 $T=35970 2380 0 0 $X=35890 $Y=2130
X80 39 M3_M2_CDNS_6 $T=39640 17490 0 0 $X=39560 $Y=17240
X81 41 M3_M2_CDNS_6 $T=43850 8260 0 0 $X=43770 $Y=8010
X82 42 M3_M2_CDNS_6 $T=43880 660 0 0 $X=43800 $Y=410
X83 40 M3_M2_CDNS_6 $T=46340 18970 0 0 $X=46260 $Y=18720
X84 1 M3_M2_CDNS_7 $T=1390 19500 0 0 $X=1310 $Y=19250
X85 29 M3_M2_CDNS_7 $T=3370 8280 0 0 $X=3290 $Y=8030
X86 19 M3_M2_CDNS_7 $T=5400 9800 0 0 $X=5320 $Y=9550
X87 7 M3_M2_CDNS_7 $T=7950 19550 0 0 $X=7870 $Y=19300
X88 31 M3_M2_CDNS_7 $T=12950 9830 0 0 $X=12870 $Y=9580
X89 21 M3_M2_CDNS_7 $T=14070 2580 0 90 $X=13820 $Y=2500
X90 20 M3_M2_CDNS_7 $T=15700 9710 0 0 $X=15620 $Y=9460
X91 11 M3_M2_CDNS_7 $T=25590 19380 0 0 $X=25510 $Y=19130
X92 32 M3_M2_CDNS_7 $T=25970 20660 0 0 $X=25890 $Y=20410
X93 24 M3_M2_CDNS_7 $T=28540 8430 0 0 $X=28460 $Y=8180
X94 24 M3_M2_CDNS_7 $T=28700 9810 0 0 $X=28620 $Y=9560
X95 40 M3_M2_CDNS_7 $T=38260 18710 0 0 $X=38180 $Y=18460
X96 28 M3_M2_CDNS_7 $T=42090 2930 0 90 $X=41840 $Y=2850
X97 2 M3_M2_CDNS_8 $T=160 15480 0 0 $X=80 $Y=15230
X98 2 M3_M2_CDNS_8 $T=160 21130 0 0 $X=80 $Y=20880
X99 2 M3_M2_CDNS_8 $T=170 9270 0 0 $X=90 $Y=9020
X100 2 M3_M2_CDNS_8 $T=170 13790 0 0 $X=90 $Y=13540
X101 44 M3_M2_CDNS_8 $T=500 8210 0 0 $X=420 $Y=7960
X102 1 M3_M2_CDNS_8 $T=1350 15570 0 0 $X=1270 $Y=15320
X103 1 M3_M2_CDNS_8 $T=1360 13320 0 0 $X=1280 $Y=13070
X104 45 M3_M2_CDNS_8 $T=4380 23070 0 90 $X=4130 $Y=22990
X105 29 M3_M2_CDNS_8 $T=4340 15320 0 0 $X=4260 $Y=15070
X106 30 M3_M2_CDNS_8 $T=5400 21130 0 0 $X=5320 $Y=20880
X107 7 M3_M2_CDNS_8 $T=5740 15570 0 0 $X=5660 $Y=15320
X108 7 M3_M2_CDNS_8 $T=5750 13320 0 0 $X=5670 $Y=13070
X109 44 M3_M2_CDNS_8 $T=6590 5910 0 0 $X=6510 $Y=5660
X110 46 M3_M2_CDNS_8 $T=7520 22860 0 0 $X=7440 $Y=22610
X111 46 M3_M2_CDNS_8 $T=7960 21030 0 0 $X=7880 $Y=20780
X112 47 M3_M2_CDNS_8 $T=8730 15340 0 0 $X=8650 $Y=15090
X113 8 M3_M2_CDNS_8 $T=8980 17010 0 0 $X=8900 $Y=16760
X114 8 M3_M2_CDNS_8 $T=10140 15570 0 0 $X=10060 $Y=15320
X115 8 M3_M2_CDNS_8 $T=10150 13320 0 0 $X=10070 $Y=13070
X116 31 M3_M2_CDNS_8 $T=12100 19160 0 0 $X=12020 $Y=18910
X117 45 M3_M2_CDNS_8 $T=12260 20780 0 0 $X=12180 $Y=20530
X118 48 M3_M2_CDNS_8 $T=13150 15340 0 0 $X=13070 $Y=15090
X119 49 M3_M2_CDNS_8 $T=14690 20780 0 0 $X=14610 $Y=20530
X120 41 M3_M2_CDNS_8 $T=15670 8330 0 0 $X=15590 $Y=8080
X121 42 M3_M2_CDNS_8 $T=16600 750 0 0 $X=16520 $Y=500
X122 49 M3_M2_CDNS_8 $T=17570 22850 0 0 $X=17490 $Y=22600
X123 43 M3_M2_CDNS_8 $T=22230 22840 0 0 $X=22150 $Y=22590
X124 43 M3_M2_CDNS_8 $T=28820 20830 0 0 $X=28740 $Y=20580
X125 33 M3_M2_CDNS_8 $T=35370 22940 0 0 $X=35290 $Y=22690
X126 2 M2_M1_CDNS_9 $T=160 15480 0 0 $X=80 $Y=15230
X127 2 M2_M1_CDNS_9 $T=160 21130 0 0 $X=80 $Y=20880
X128 2 M2_M1_CDNS_9 $T=170 9270 0 0 $X=90 $Y=9020
X129 2 M2_M1_CDNS_9 $T=170 13790 0 0 $X=90 $Y=13540
X130 44 M2_M1_CDNS_9 $T=500 8210 0 0 $X=420 $Y=7960
X131 45 M2_M1_CDNS_9 $T=4380 23070 0 90 $X=4130 $Y=22990
X132 29 M2_M1_CDNS_9 $T=4340 15320 0 0 $X=4260 $Y=15070
X133 30 M2_M1_CDNS_9 $T=5400 21130 0 0 $X=5320 $Y=20880
X134 47 M2_M1_CDNS_9 $T=8730 15340 0 0 $X=8650 $Y=15090
X135 31 M2_M1_CDNS_9 $T=12100 19160 0 0 $X=12020 $Y=18910
X136 48 M2_M1_CDNS_9 $T=13150 15340 0 0 $X=13070 $Y=15090
X137 49 M2_M1_CDNS_9 $T=17570 22850 0 0 $X=17490 $Y=22600
X138 43 M2_M1_CDNS_9 $T=22230 22840 0 0 $X=22150 $Y=22590
X139 43 M2_M1_CDNS_9 $T=28820 20830 0 0 $X=28740 $Y=20580
X140 33 M2_M1_CDNS_9 $T=35370 22940 0 0 $X=35290 $Y=22690
X141 40 M2_M1_CDNS_9 $T=46340 18970 0 0 $X=46260 $Y=18720
X142 43 M5_M4_CDNS_10 $T=34220 19150 0 0 $X=34140 $Y=18900
X143 38 M5_M4_CDNS_10 $T=34850 16990 0 0 $X=34770 $Y=16740
X144 43 M4_M3_CDNS_11 $T=28820 19250 0 0 $X=28740 $Y=19000
X145 43 M4_M3_CDNS_11 $T=34220 19150 0 0 $X=34140 $Y=18900
X146 43 M5_M4_CDNS_12 $T=28820 19250 0 0 $X=28740 $Y=19120
X147 38 M5_M4_CDNS_12 $T=35550 19590 0 0 $X=35470 $Y=19460
X148 1 M1_PO_CDNS_13 $T=1390 17230 0 0 $X=1290 $Y=16980
X149 1 M1_PO_CDNS_13 $T=1390 24660 0 0 $X=1290 $Y=24410
X150 3 M1_PO_CDNS_13 $T=2770 22320 0 90 $X=2520 $Y=22220
X151 5 M1_PO_CDNS_13 $T=2650 13610 0 0 $X=2550 $Y=13360
X152 4 M1_PO_CDNS_13 $T=2750 17050 0 0 $X=2650 $Y=16800
X153 1 M1_PO_CDNS_13 $T=4410 23850 0 0 $X=4310 $Y=23600
X154 4 M1_PO_CDNS_13 $T=5790 16970 0 0 $X=5690 $Y=16720
X155 9 M1_PO_CDNS_13 $T=7290 23970 0 90 $X=7040 $Y=23870
X156 5 M1_PO_CDNS_13 $T=7180 13450 0 0 $X=7080 $Y=13200
X157 3 M1_PO_CDNS_13 $T=8720 22330 0 90 $X=8470 $Y=22230
X158 3 M1_PO_CDNS_13 $T=9910 24890 0 90 $X=9660 $Y=24790